MODEL 1
REMARK VINA RESULT:      -7.0      0.000      0.000
REMARK  4 active torsions:
REMARK  status: ('A' for Active; 'I' for Inactive)
REMARK    1  A    between atoms: C2_2  and  C3_3 
REMARK    2  A    between atoms: C5_6  and  N1_7 
REMARK       I    between atoms: N1_7  and  C6_8 
REMARK       I    between atoms: C6_8  and  N2_10 
REMARK    3  A    between atoms: N2_10  and  C7_11 
REMARK    4  A    between atoms: C7_11  and  C8_12 
ROOT
HETATM    1  N1  A1J X   1      23.160   0.566  13.220  1.00 20.00    -0.287 N 
HETATM    2  C6  A1J X   1      22.822   1.679  12.520  1.00 20.00     0.322 C 
HETATM    3  O1  A1J X   1      22.726   1.690  11.296  1.00 20.00    -0.247 OA
HETATM    4  N2  A1J X   1      22.596   2.781  13.242  1.00 20.00    -0.342 N 
HETATM    5  H10 A1J X   1      23.263   0.677  14.188  1.00 20.00     0.172 HD
HETATM    6  H11 A1J X   1      22.788   2.765  14.203  1.00 20.00     0.164 HD
ENDROOT
BRANCH   4   7
HETATM    7  C7  A1J X   1      22.072   4.004  12.652  1.00 20.00     0.136 C 
BRANCH   7   8
HETATM    8  C8  A1J X   1      20.570   4.161  12.867  1.00 20.00     0.101 C 
HETATM    9  C9  A1J X   1      20.321   5.332  13.807  1.00 20.00     0.244 C 
HETATM   10  N3  A1J X   1      20.770   6.612  13.184  1.00 20.00    -0.074 N 
HETATM   11  H2  A1J X   1      21.807   6.566  13.027  1.00 20.00     0.277 HD
HETATM   12  H3  A1J X   1      20.549   7.402  13.839  1.00 20.00     0.277 HD
HETATM   13  C10 A1J X   1      20.097   6.871  11.874  1.00 20.00     0.238 C 
HETATM   14  C11 A1J X   1      20.366   5.717  10.924  1.00 20.00     0.107 C 
HETATM   15  C12 A1J X   1      19.892   4.390  11.518  1.00 20.00     0.252 C 
HETATM   16  F2  A1J X   1      20.206   3.408  10.700  1.00 20.00    -0.206 F 
HETATM   17  F1  A1J X   1      18.547   4.426  11.688  1.00 20.00    -0.206 F 
ENDBRANCH   7   8
ENDBRANCH   4   7
BRANCH   1  18
HETATM   18  C5  A1J X   1      23.378  -0.729  12.716  1.00 20.00     0.174 A 
HETATM   19  N4  A1J X   1      22.405  -1.521  12.339  1.00 20.00    -0.228 NA
HETATM   20  C3  A1J X   1      22.890  -2.732  11.892  1.00 20.00     0.043 A 
HETATM   21  C4  A1J X   1      24.250  -2.863  11.920  1.00 20.00     0.080 A 
HETATM   22  S1  A1J X   1      24.954  -1.416  12.539  1.00 20.00    -0.062 SA
BRANCH  20  23
HETATM   23  C2  A1J X   1      21.984  -3.832  11.408  1.00 20.00     0.055 C 
HETATM   24  C1  A1J X   1      21.396  -4.661  12.539  1.00 20.00     0.011 C 
ENDBRANCH  20  23
ENDBRANCH   1  18
TORSDOF 4
ENDMDL
MODEL 2
REMARK VINA RESULT:      -6.8      1.785      2.067
REMARK  4 active torsions:
REMARK  status: ('A' for Active; 'I' for Inactive)
REMARK    1  A    between atoms: C2_2  and  C3_3 
REMARK    2  A    between atoms: C5_6  and  N1_7 
REMARK       I    between atoms: N1_7  and  C6_8 
REMARK       I    between atoms: C6_8  and  N2_10 
REMARK    3  A    between atoms: N2_10  and  C7_11 
REMARK    4  A    between atoms: C7_11  and  C8_12 
ROOT
HETATM    1  N1  A1J X   1      22.711   0.649  12.187  1.00 20.00    -0.287 N 
HETATM    2  C6  A1J X   1      22.454   1.483  11.147  1.00 20.00     0.322 C 
HETATM    3  O1  A1J X   1      22.578   1.139   9.974  1.00 20.00    -0.247 OA
HETATM    4  N2  A1J X   1      22.053   2.716  11.468  1.00 20.00    -0.342 N 
HETATM    5  H10 A1J X   1      22.635   1.037  13.084  1.00 20.00     0.172 HD
HETATM    6  H11 A1J X   1      22.071   2.990  12.410  1.00 20.00     0.164 HD
ENDROOT
BRANCH   4   7
HETATM    7  C7  A1J X   1      21.589   3.668  10.470  1.00 20.00     0.136 C 
BRANCH   7   8
HETATM    8  C8  A1J X   1      20.106   3.996  10.619  1.00 20.00     0.101 C 
HETATM    9  C9  A1J X   1      19.936   5.507  10.689  1.00 20.00     0.244 C 
HETATM   10  N3  A1J X   1      20.357   6.144   9.407  1.00 20.00    -0.074 N 
HETATM   11  H2  A1J X   1      21.381   5.963   9.260  1.00 20.00     0.277 HD
HETATM   12  H3  A1J X   1      20.190   7.179   9.473  1.00 20.00     0.277 HD
HETATM   13  C10 A1J X   1      19.600   5.610   8.233  1.00 20.00     0.238 C 
HETATM   14  C11 A1J X   1      19.791   4.106   8.144  1.00 20.00     0.107 C 
HETATM   15  C12 A1J X   1      19.342   3.414   9.433  1.00 20.00     0.252 C 
HETATM   16  F2  A1J X   1      19.588   2.125   9.345  1.00 20.00    -0.206 F 
HETATM   17  F1  A1J X   1      18.012   3.611   9.611  1.00 20.00    -0.206 F 
ENDBRANCH   7   8
ENDBRANCH   4   7
BRANCH   1  18
HETATM   18  C5  A1J X   1      23.074  -0.709  12.127  1.00 20.00     0.174 A 
HETATM   19  N4  A1J X   1      22.239  -1.655  11.777  1.00 20.00    -0.228 NA
HETATM   20  C3  A1J X   1      22.844  -2.894  11.807  1.00 20.00     0.043 A 
HETATM   21  C4  A1J X   1      24.160  -2.892  12.174  1.00 20.00     0.080 A 
HETATM   22  S1  A1J X   1      24.662  -1.276  12.507  1.00 20.00    -0.062 SA
BRANCH  20  23
HETATM   23  C2  A1J X   1      22.107  -4.159  11.458  1.00 20.00     0.055 C 
HETATM   24  C1  A1J X   1      21.242  -4.678  12.596  1.00 20.00     0.011 C 
ENDBRANCH  20  23
ENDBRANCH   1  18
TORSDOF 4
ENDMDL
MODEL 3
REMARK VINA RESULT:      -6.8     22.060     24.562
REMARK  4 active torsions:
REMARK  status: ('A' for Active; 'I' for Inactive)
REMARK    1  A    between atoms: C2_2  and  C3_3 
REMARK    2  A    between atoms: C5_6  and  N1_7 
REMARK       I    between atoms: N1_7  and  C6_8 
REMARK       I    between atoms: C6_8  and  N2_10 
REMARK    3  A    between atoms: N2_10  and  C7_11 
REMARK    4  A    between atoms: C7_11  and  C8_12 
ROOT
HETATM    1  N1  A1J X   1      11.186 -12.251  -6.267  1.00 20.00    -0.287 N 
HETATM    2  C6  A1J X   1      11.866 -11.545  -5.327  1.00 20.00     0.322 C 
HETATM    3  O1  A1J X   1      11.687 -10.345  -5.139  1.00 20.00    -0.247 OA
HETATM    4  N2  A1J X   1      12.755 -12.234  -4.606  1.00 20.00    -0.342 N 
HETATM    5  H10 A1J X   1      11.443 -13.190  -6.375  1.00 20.00     0.172 HD
HETATM    6  H11 A1J X   1      12.951 -13.161  -4.856  1.00 20.00     0.164 HD
ENDROOT
BRANCH   4   7
HETATM    7  C7  A1J X   1      13.442 -11.656  -3.460  1.00 20.00     0.136 C 
BRANCH   7   8
HETATM    8  C8  A1J X   1      14.904 -12.085  -3.377  1.00 20.00     0.101 C 
HETATM    9  C9  A1J X   1      15.597 -11.751  -4.690  1.00 20.00     0.244 C 
HETATM   10  N3  A1J X   1      15.627 -10.274  -4.909  1.00 20.00    -0.074 N 
HETATM   11  H2  A1J X   1      14.640  -9.925  -4.991  1.00 20.00     0.277 HD
HETATM   12  H3  A1J X   1      16.144 -10.076  -5.801  1.00 20.00     0.277 HD
HETATM   13  C10 A1J X   1      16.303  -9.549  -3.789  1.00 20.00     0.238 C 
HETATM   14  C11 A1J X   1      15.597  -9.859  -2.481  1.00 20.00     0.107 C 
HETATM   15  C12 A1J X   1      15.571 -11.364  -2.209  1.00 20.00     0.252 C 
HETATM   16  F2  A1J X   1      14.892 -11.597  -1.107  1.00 20.00    -0.206 F 
HETATM   17  F1  A1J X   1      16.842 -11.818  -2.063  1.00 20.00    -0.206 F 
ENDBRANCH   7   8
ENDBRANCH   4   7
BRANCH   1  18
HETATM   18  C5  A1J X   1      10.154 -11.788  -7.104  1.00 20.00     0.174 A 
HETATM   19  N4  A1J X   1       8.944 -11.535  -6.671  1.00 20.00    -0.228 NA
HETATM   20  C3  A1J X   1       8.126 -11.103  -7.693  1.00 20.00     0.043 A 
HETATM   21  C4  A1J X   1       8.722 -11.015  -8.920  1.00 20.00     0.080 A 
HETATM   22  S1  A1J X   1      10.370 -11.504  -8.795  1.00 20.00    -0.062 SA
BRANCH  20  23
HETATM   23  C2  A1J X   1       6.679 -10.751  -7.473  1.00 20.00     0.055 C 
HETATM   24  C1  A1J X   1       5.994 -10.231  -8.727  1.00 20.00     0.011 C 
ENDBRANCH  20  23
ENDBRANCH   1  18
TORSDOF 4
ENDMDL
MODEL 4
REMARK VINA RESULT:      -6.7     31.161     32.463
REMARK  4 active torsions:
REMARK  status: ('A' for Active; 'I' for Inactive)
REMARK    1  A    between atoms: C2_2  and  C3_3 
REMARK    2  A    between atoms: C5_6  and  N1_7 
REMARK       I    between atoms: N1_7  and  C6_8 
REMARK       I    between atoms: C6_8  and  N2_10 
REMARK    3  A    between atoms: N2_10  and  C7_11 
REMARK    4  A    between atoms: C7_11  and  C8_12 
ROOT
HETATM    1  N1  A1J X   1      -8.663 -11.555   6.229  1.00 20.00    -0.287 N 
HETATM    2  C6  A1J X   1      -8.649 -10.221   6.479  1.00 20.00     0.322 C 
HETATM    3  O1  A1J X   1      -9.110  -9.733   7.508  1.00 20.00    -0.247 OA
HETATM    4  N2  A1J X   1      -8.100  -9.452   5.534  1.00 20.00    -0.342 N 
HETATM    5  H10 A1J X   1      -8.321 -11.837   5.355  1.00 20.00     0.172 HD
HETATM    6  H11 A1J X   1      -7.843  -9.861   4.681  1.00 20.00     0.164 HD
ENDROOT
BRANCH   4   7
HETATM    7  C7  A1J X   1      -7.869  -8.028   5.727  1.00 20.00     0.136 C 
BRANCH   7   8
HETATM    8  C8  A1J X   1      -6.384  -7.679   5.783  1.00 20.00     0.101 C 
HETATM    9  C9  A1J X   1      -6.101  -6.551   4.801  1.00 20.00     0.244 C 
HETATM   10  N3  A1J X   1      -6.818  -5.307   5.208  1.00 20.00    -0.074 N 
HETATM   11  H2  A1J X   1      -7.852  -5.485   5.172  1.00 20.00     0.277 HD
HETATM   12  H3  A1J X   1      -6.572  -4.539   4.534  1.00 20.00     0.277 HD
HETATM   13  C10 A1J X   1      -6.453  -4.869   6.590  1.00 20.00     0.238 C 
HETATM   14  C11 A1J X   1      -6.760  -5.982   7.576  1.00 20.00     0.107 C 
HETATM   15  C12 A1J X   1      -6.019  -7.268   7.207  1.00 20.00     0.252 C 
HETATM   16  F2  A1J X   1      -6.364  -8.226   8.039  1.00 20.00    -0.206 F 
HETATM   17  F1  A1J X   1      -4.681  -7.058   7.288  1.00 20.00    -0.206 F 
ENDBRANCH   7   8
ENDBRANCH   4   7
BRANCH   1  18
HETATM   18  C5  A1J X   1      -9.113 -12.581   7.080  1.00 20.00     0.174 A 
HETATM   19  N4  A1J X   1      -8.677 -12.733   8.306  1.00 20.00    -0.228 NA
HETATM   20  C3  A1J X   1      -9.272 -13.815   8.919  1.00 20.00     0.043 A 
HETATM   21  C4  A1J X   1     -10.180 -14.493   8.155  1.00 20.00     0.080 A 
HETATM   22  S1  A1J X   1     -10.289 -13.754   6.601  1.00 20.00    -0.062 SA
BRANCH  20  23
HETATM   23  C2  A1J X   1      -8.944 -14.221  10.331  1.00 20.00     0.055 C 
HETATM   24  C1  A1J X   1      -8.923 -15.729  10.528  1.00 20.00     0.011 C 
ENDBRANCH  20  23
ENDBRANCH   1  18
TORSDOF 4
ENDMDL
MODEL 5
REMARK VINA RESULT:      -6.4     21.721     24.170
REMARK  4 active torsions:
REMARK  status: ('A' for Active; 'I' for Inactive)
REMARK    1  A    between atoms: C2_2  and  C3_3 
REMARK    2  A    between atoms: C5_6  and  N1_7 
REMARK       I    between atoms: N1_7  and  C6_8 
REMARK       I    between atoms: C6_8  and  N2_10 
REMARK    3  A    between atoms: N2_10  and  C7_11 
REMARK    4  A    between atoms: C7_11  and  C8_12 
ROOT
HETATM    1  N1  A1J X   1      11.524  -9.676  -6.607  1.00 20.00    -0.287 N 
HETATM    2  C6  A1J X   1      12.065  -9.889  -5.381  1.00 20.00     0.322 C 
HETATM    3  O1  A1J X   1      11.465 -10.476  -4.484  1.00 20.00    -0.247 OA
HETATM    4  N2  A1J X   1      13.302  -9.421  -5.195  1.00 20.00    -0.342 N 
HETATM    5  H10 A1J X   1      12.063  -9.149  -7.234  1.00 20.00     0.172 HD
HETATM    6  H11 A1J X   1      13.707  -8.863  -5.892  1.00 20.00     0.164 HD
ENDROOT
BRANCH   4   7
HETATM    7  C7  A1J X   1      14.072  -9.711  -3.994  1.00 20.00     0.136 C 
BRANCH   7   8
HETATM    8  C8  A1J X   1      15.150 -10.765  -4.229  1.00 20.00     0.101 C 
HETATM    9  C9  A1J X   1      16.519 -10.118  -4.081  1.00 20.00     0.244 C 
HETATM   10  N3  A1J X   1      16.728  -9.641  -2.682  1.00 20.00    -0.074 N 
HETATM   11  H2  A1J X   1      16.018  -8.897  -2.469  1.00 20.00     0.277 HD
HETATM   12  H3  A1J X   1      17.694  -9.237  -2.604  1.00 20.00     0.277 HD
HETATM   13  C10 A1J X   1      16.585 -10.742  -1.681  1.00 20.00     0.238 C 
HETATM   14  C11 A1J X   1      15.208 -11.372  -1.808  1.00 20.00     0.107 C 
HETATM   15  C12 A1J X   1      14.969 -11.899  -3.224  1.00 20.00     0.252 C 
HETATM   16  F2  A1J X   1      13.745 -12.371  -3.313  1.00 20.00    -0.206 F 
HETATM   17  F1  A1J X   1      15.857 -12.888  -3.493  1.00 20.00    -0.206 F 
ENDBRANCH   7   8
ENDBRANCH   4   7
BRANCH   1  18
HETATM   18  C5  A1J X   1      10.279 -10.123  -7.084  1.00 20.00     0.174 A 
HETATM   19  N4  A1J X   1       9.308  -9.309  -7.418  1.00 20.00    -0.228 NA
HETATM   20  C3  A1J X   1       8.197 -10.004  -7.846  1.00 20.00     0.043 A 
HETATM   21  C4  A1J X   1       8.323 -11.364  -7.847  1.00 20.00     0.080 A 
HETATM   22  S1  A1J X   1       9.892 -11.797  -7.280  1.00 20.00    -0.062 SA
BRANCH  20  23
HETATM   23  C2  A1J X   1       6.933  -9.311  -8.281  1.00 20.00     0.055 C 
HETATM   24  C1  A1J X   1       7.153  -7.857  -8.666  1.00 20.00     0.011 C 
ENDBRANCH  20  23
ENDBRANCH   1  18
TORSDOF 4
ENDMDL
MODEL 6
REMARK VINA RESULT:      -6.3     15.440     18.803
REMARK  4 active torsions:
REMARK  status: ('A' for Active; 'I' for Inactive)
REMARK    1  A    between atoms: C2_2  and  C3_3 
REMARK    2  A    between atoms: C5_6  and  N1_7 
REMARK       I    between atoms: N1_7  and  C6_8 
REMARK       I    between atoms: C6_8  and  N2_10 
REMARK    3  A    between atoms: N2_10  and  C7_11 
REMARK    4  A    between atoms: C7_11  and  C8_12 
ROOT
HETATM    1  N1  A1J X   1      22.734 -10.327  -0.545  1.00 20.00    -0.287 N 
HETATM    2  C6  A1J X   1      23.246 -10.987   0.525  1.00 20.00     0.322 C 
HETATM    3  O1  A1J X   1      23.909 -10.427   1.395  1.00 20.00    -0.247 OA
HETATM    4  N2  A1J X   1      22.989 -12.296   0.585  1.00 20.00    -0.342 N 
HETATM    5  H10 A1J X   1      22.267 -10.874  -1.210  1.00 20.00     0.172 HD
HETATM    6  H11 A1J X   1      22.553 -12.729  -0.179  1.00 20.00     0.164 HD
ENDROOT
BRANCH   4   7
HETATM    7  C7  A1J X   1      23.332 -13.104   1.746  1.00 20.00     0.136 C 
BRANCH   7   8
HETATM    8  C8  A1J X   1      22.474 -14.361   1.860  1.00 20.00     0.101 C 
HETATM    9  C9  A1J X   1      23.268 -15.553   1.345  1.00 20.00     0.244 C 
HETATM   10  N3  A1J X   1      24.458 -15.805   2.210  1.00 20.00    -0.074 N 
HETATM   11  H2  A1J X   1      25.097 -14.973   2.157  1.00 20.00     0.277 HD
HETATM   12  H3  A1J X   1      24.961 -16.655   1.852  1.00 20.00     0.277 HD
HETATM   13  C10 A1J X   1      24.083 -16.033   3.639  1.00 20.00     0.238 C 
HETATM   14  C11 A1J X   1      23.315 -14.833   4.163  1.00 20.00     0.107 C 
HETATM   15  C12 A1J X   1      22.070 -14.561   3.317  1.00 20.00     0.252 C 
HETATM   16  F2  A1J X   1      21.471 -13.476   3.757  1.00 20.00    -0.206 F 
HETATM   17  F1  A1J X   1      21.221 -15.616   3.411  1.00 20.00    -0.206 F 
ENDBRANCH   7   8
ENDBRANCH   4   7
BRANCH   1  18
HETATM   18  C5  A1J X   1      22.795  -8.946  -0.810  1.00 20.00     0.174 A 
HETATM   19  N4  A1J X   1      21.820  -8.121  -0.520  1.00 20.00    -0.228 NA
HETATM   20  C3  A1J X   1      22.132  -6.829  -0.888  1.00 20.00     0.043 A 
HETATM   21  C4  A1J X   1      23.364  -6.665  -1.456  1.00 20.00     0.080 A 
HETATM   22  S1  A1J X   1      24.164  -8.189  -1.545  1.00 20.00    -0.062 SA
BRANCH  20  23
HETATM   23  C2  A1J X   1      21.182  -5.680  -0.677  1.00 20.00     0.055 C 
HETATM   24  C1  A1J X   1      21.674  -4.682   0.359  1.00 20.00     0.011 C 
ENDBRANCH  20  23
ENDBRANCH   1  18
TORSDOF 4
ENDMDL
MODEL 7
REMARK VINA RESULT:      -6.2     22.163     24.662
REMARK  4 active torsions:
REMARK  status: ('A' for Active; 'I' for Inactive)
REMARK    1  A    between atoms: C2_2  and  C3_3 
REMARK    2  A    between atoms: C5_6  and  N1_7 
REMARK       I    between atoms: N1_7  and  C6_8 
REMARK       I    between atoms: C6_8  and  N2_10 
REMARK    3  A    between atoms: N2_10  and  C7_11 
REMARK    4  A    between atoms: C7_11  and  C8_12 
ROOT
HETATM    1  N1  A1J X   1      11.412 -12.291  -6.369  1.00 20.00    -0.287 N 
HETATM    2  C6  A1J X   1      12.197 -11.590  -5.512  1.00 20.00     0.322 C 
HETATM    3  O1  A1J X   1      12.409 -10.386  -5.638  1.00 20.00    -0.247 OA
HETATM    4  N2  A1J X   1      12.738 -12.286  -4.508  1.00 20.00    -0.342 N 
HETATM    5  H10 A1J X   1      11.352 -13.256  -6.212  1.00 20.00     0.172 HD
HETATM    6  H11 A1J X   1      12.638 -13.261  -4.500  1.00 20.00     0.164 HD
ENDROOT
BRANCH   4   7
HETATM    7  C7  A1J X   1      13.468 -11.647  -3.423  1.00 20.00     0.136 C 
BRANCH   7   8
HETATM    8  C8  A1J X   1      14.928 -12.087  -3.362  1.00 20.00     0.101 C 
HETATM    9  C9  A1J X   1      15.599 -11.773  -4.691  1.00 20.00     0.244 C 
HETATM   10  N3  A1J X   1      15.637 -10.300  -4.927  1.00 20.00    -0.074 N 
HETATM   11  H2  A1J X   1      14.652  -9.943  -4.995  1.00 20.00     0.277 HD
HETATM   12  H3  A1J X   1      16.139 -10.115  -5.831  1.00 20.00     0.277 HD
HETATM   13  C10 A1J X   1      16.339  -9.568  -3.829  1.00 20.00     0.238 C 
HETATM   14  C11 A1J X   1      15.655  -9.857  -2.504  1.00 20.00     0.107 C 
HETATM   15  C12 A1J X   1      15.623 -11.359  -2.214  1.00 20.00     0.252 C 
HETATM   16  F2  A1J X   1      14.962 -11.574  -1.097  1.00 20.00    -0.206 F 
HETATM   17  F1  A1J X   1      16.892 -11.822  -2.087  1.00 20.00    -0.206 F 
ENDBRANCH   7   8
ENDBRANCH   4   7
BRANCH   1  18
HETATM   18  C5  A1J X   1      10.674 -11.791  -7.457  1.00 20.00     0.174 A 
HETATM   19  N4  A1J X   1      11.056 -11.929  -8.702  1.00 20.00    -0.228 NA
HETATM   20  C3  A1J X   1      10.159 -11.344  -9.570  1.00 20.00     0.043 A 
HETATM   21  C4  A1J X   1       9.072 -10.761  -8.981  1.00 20.00     0.080 A 
HETATM   22  S1  A1J X   1       9.180 -10.941  -7.270  1.00 20.00    -0.062 SA
BRANCH  20  23
HETATM   23  C2  A1J X   1      10.362 -11.348 -11.062  1.00 20.00     0.055 C 
HETATM   24  C1  A1J X   1      11.163 -12.544 -11.551  1.00 20.00     0.011 C 
ENDBRANCH  20  23
ENDBRANCH   1  18
TORSDOF 4
ENDMDL
MODEL 8
REMARK VINA RESULT:      -6.2      3.622      7.764
REMARK  4 active torsions:
REMARK  status: ('A' for Active; 'I' for Inactive)
REMARK    1  A    between atoms: C2_2  and  C3_3 
REMARK    2  A    between atoms: C5_6  and  N1_7 
REMARK       I    between atoms: N1_7  and  C6_8 
REMARK       I    between atoms: C6_8  and  N2_10 
REMARK    3  A    between atoms: N2_10  and  C7_11 
REMARK    4  A    between atoms: C7_11  and  C8_12 
ROOT
HETATM    1  N1  A1J X   1      20.603   1.958   9.632  1.00 20.00    -0.287 N 
HETATM    2  C6  A1J X   1      21.836   1.437   9.861  1.00 20.00     0.322 C 
HETATM    3  O1  A1J X   1      22.836   2.135  10.006  1.00 20.00    -0.247 OA
HETATM    4  N2  A1J X   1      21.907   0.104   9.921  1.00 20.00    -0.342 N 
HETATM    5  H10 A1J X   1      19.882   1.315   9.476  1.00 20.00     0.172 HD
HETATM    6  H11 A1J X   1      21.113  -0.423   9.693  1.00 20.00     0.164 HD
ENDROOT
BRANCH   4   7
HETATM    7  C7  A1J X   1      23.122  -0.593  10.316  1.00 20.00     0.136 C 
BRANCH   7   8
HETATM    8  C8  A1J X   1      23.123  -0.976  11.794  1.00 20.00     0.101 C 
HETATM    9  C9  A1J X   1      22.893  -2.475  11.920  1.00 20.00     0.244 C 
HETATM   10  N3  A1J X   1      24.024  -3.235  11.311  1.00 20.00    -0.074 N 
HETATM   11  H2  A1J X   1      24.061  -3.021  10.283  1.00 20.00     0.277 HD
HETATM   12  H3  A1J X   1      23.854  -4.262  11.449  1.00 20.00     0.277 HD
HETATM   13  C10 A1J X   1      25.341  -2.879  11.923  1.00 20.00     0.238 C 
HETATM   14  C11 A1J X   1      25.587  -1.387  11.775  1.00 20.00     0.107 C 
HETATM   15  C12 A1J X   1      24.459  -0.574  12.413  1.00 20.00     0.252 C 
HETATM   16  F2  A1J X   1      24.670   0.706  12.203  1.00 20.00    -0.206 F 
HETATM   17  F1  A1J X   1      24.429  -0.815  13.748  1.00 20.00    -0.206 F 
ENDBRANCH   7   8
ENDBRANCH   4   7
BRANCH   1  18
HETATM   18  C5  A1J X   1      20.243   3.318   9.594  1.00 20.00     0.174 A 
HETATM   19  N4  A1J X   1      19.768   3.959  10.633  1.00 20.00    -0.228 NA
HETATM   20  C3  A1J X   1      19.490   5.274  10.326  1.00 20.00     0.043 A 
HETATM   21  C4  A1J X   1      19.765   5.644   9.040  1.00 20.00     0.080 A 
HETATM   22  S1  A1J X   1      20.388   4.290   8.173  1.00 20.00    -0.062 SA
BRANCH  20  23
HETATM   23  C2  A1J X   1      18.924   6.235  11.337  1.00 20.00     0.055 C 
HETATM   24  C1  A1J X   1      17.441   6.021  11.598  1.00 20.00     0.011 C 
ENDBRANCH  20  23
ENDBRANCH   1  18
TORSDOF 4
ENDMDL
MODEL 9
REMARK VINA RESULT:      -6.0     19.041     19.924
REMARK  4 active torsions:
REMARK  status: ('A' for Active; 'I' for Inactive)
REMARK    1  A    between atoms: C2_2  and  C3_3 
REMARK    2  A    between atoms: C5_6  and  N1_7 
REMARK       I    between atoms: N1_7  and  C6_8 
REMARK       I    between atoms: C6_8  and  N2_10 
REMARK    3  A    between atoms: N2_10  and  C7_11 
REMARK    4  A    between atoms: C7_11  and  C8_12 
ROOT
HETATM    1  N1  A1J X   1       7.728  -4.095  25.799  1.00 20.00    -0.287 N 
HETATM    2  C6  A1J X   1       8.661  -3.141  26.049  1.00 20.00     0.322 C 
HETATM    3  O1  A1J X   1       8.578  -2.363  26.996  1.00 20.00    -0.247 OA
HETATM    4  N2  A1J X   1       9.692  -3.091  25.200  1.00 20.00    -0.342 N 
HETATM    5  H10 A1J X   1       7.859  -4.628  24.988  1.00 20.00     0.172 HD
HETATM    6  H11 A1J X   1       9.670  -3.651  24.396  1.00 20.00     0.164 HD
ENDROOT
BRANCH   4   7
HETATM    7  C7  A1J X   1      10.846  -2.234  25.427  1.00 20.00     0.136 C 
BRANCH   7   8
HETATM    8  C8  A1J X   1      11.412  -1.658  24.132  1.00 20.00     0.101 C 
HETATM    9  C9  A1J X   1      10.298  -0.957  23.370  1.00 20.00     0.244 C 
HETATM   10  N3  A1J X   1       9.792   0.218  24.138  1.00 20.00    -0.074 N 
HETATM   11  H2  A1J X   1       9.372  -0.123  25.039  1.00 20.00     0.277 HD
HETATM   12  H3  A1J X   1       9.053   0.701  23.569  1.00 20.00     0.277 HD
HETATM   13  C10 A1J X   1      10.875   1.199  24.453  1.00 20.00     0.238 C 
HETATM   14  C11 A1J X   1      11.977   0.508  25.239  1.00 20.00     0.107 C 
HETATM   15  C12 A1J X   1      12.540  -0.687  24.468  1.00 20.00     0.252 C 
HETATM   16  F2  A1J X   1      13.439  -1.299  25.207  1.00 20.00    -0.206 F 
HETATM   17  F1  A1J X   1      13.118  -0.251  23.320  1.00 20.00    -0.206 F 
ENDBRANCH   7   8
ENDBRANCH   4   7
BRANCH   1  18
HETATM   18  C5  A1J X   1       6.594  -4.406  26.570  1.00 20.00     0.174 A 
HETATM   19  N4  A1J X   1       5.372  -4.128  26.188  1.00 20.00    -0.228 NA
HETATM   20  C3  A1J X   1       4.448  -4.532  27.128  1.00 20.00     0.043 A 
HETATM   21  C4  A1J X   1       4.970  -5.134  28.238  1.00 20.00     0.080 A 
HETATM   22  S1  A1J X   1       6.688  -5.191  28.108  1.00 20.00    -0.062 SA
BRANCH  20  23
HETATM   23  C2  A1J X   1       2.969  -4.323  26.944  1.00 20.00     0.055 C 
HETATM   24  C1  A1J X   1       2.633  -3.008  26.260  1.00 20.00     0.011 C 
ENDBRANCH  20  23
ENDBRANCH   1  18
TORSDOF 4
ENDMDL
