MODEL 1
REMARK VINA RESULT:      -6.0      0.000      0.000
REMARK  Name = 
REMARK  11 active torsions:
REMARK  status: ('A' for Active; 'I' for Inactive)
REMARK    1  A    between atoms: C_2  and  C_4
REMARK    2  A    between atoms: C_4  and  N_5
REMARK    3  A    between atoms: N_5  and  C_6
REMARK    4  A    between atoms: N_5  and  C_17
REMARK    5  A    between atoms: C_6  and  C_7
REMARK    6  A    between atoms: C_7  and  N_8
REMARK    7  A    between atoms: N_8  and  C_9
REMARK    8  A    between atoms: N_8  and  C_13
REMARK    9  A    between atoms: C_9  and  C_10
REMARK   10  A    between atoms: C_13  and  C_14
REMARK   11  A    between atoms: C_17  and  C_18
REMARK                            x       y       z     vdW  Elec       q    Type
REMARK                         _______ _______ _______ _____ _____    ______ ____
ROOT
ATOM      1  C   UNL     1      22.050  -1.160  10.381  0.00  0.00    +0.000 C 
ENDROOT
BRANCH   1   2
ATOM      2  N   UNL     1      22.862  -2.120  11.212  0.00  0.00    +0.000 NA
BRANCH   2   3
ATOM      3  C   UNL     1      21.970  -2.853  12.187  0.00  0.00    +0.000 C 
BRANCH   3   5
ATOM      4  O   UNL     1      21.300  -5.074  12.838  0.00  0.00    +0.000 OA
ATOM      5  C   UNL     1      21.642  -4.348  11.848  0.00  0.00    +0.000 C 
ATOM      6  O   UNL     1      21.915  -4.745  10.671  0.00  0.00    +0.000 OA
ENDBRANCH   3   5
ENDBRANCH   2   3
BRANCH   2   7
ATOM      7  C   UNL     1      23.890  -1.342  12.005  0.00  0.00    +0.000 C 
BRANCH   7   8
ATOM      8  C   UNL     1      25.375  -1.830  11.886  0.00  0.00    +0.000 C 
ATOM      9  O   UNL     1      26.167  -1.063  11.247  0.00  0.00    +0.000 OA
ATOM     10  O   UNL     1      25.622  -3.018  12.273  0.00  0.00    +0.000 OA
ENDBRANCH   7   8
ENDBRANCH   2   7
ENDBRANCH   1   2
BRANCH   1  11
ATOM     11  C   UNL     1      22.734   0.219  10.028  0.00  0.00    +0.000 C 
BRANCH  11  12
ATOM     12  N   UNL     1      21.984   1.480  10.361  0.00  0.00    +0.000 NA
BRANCH  12  13
ATOM     13  C   UNL     1      22.813   2.335  11.292  0.00  0.00    +0.000 C 
BRANCH  13  14
ATOM     14  C   UNL     1      22.229   2.542  12.736  0.00  0.00    +0.000 C 
ATOM     15  O   UNL     1      22.505   1.629  13.583  0.00  0.00    +0.000 OA
ATOM     16  O   UNL     1      21.398   3.490  12.890  0.00  0.00    +0.000 OA
ENDBRANCH  13  14
ENDBRANCH  12  13
BRANCH  12  17
ATOM     17  C   UNL     1      21.728   2.263   9.095  0.00  0.00    +0.000 C 
BRANCH  17  18
ATOM     18  C   UNL     1      20.573   3.321   9.150  0.00  0.00    +0.000 C 
ATOM     19  O   UNL     1      19.386   2.894   9.313  0.00  0.00    +0.000 OA
ATOM     20  O   UNL     1      20.957   4.538   9.186  0.00  0.00    +0.000 OA
ENDBRANCH  17  18
ENDBRANCH  12  17
ENDBRANCH  11  12
ENDBRANCH   1  11
TORSDOF 11
ENDMDL
MODEL 2
REMARK VINA RESULT:      -5.7      1.118      2.885
REMARK  Name = 
REMARK  11 active torsions:
REMARK  status: ('A' for Active; 'I' for Inactive)
REMARK    1  A    between atoms: C_2  and  C_4
REMARK    2  A    between atoms: C_4  and  N_5
REMARK    3  A    between atoms: N_5  and  C_6
REMARK    4  A    between atoms: N_5  and  C_17
REMARK    5  A    between atoms: C_6  and  C_7
REMARK    6  A    between atoms: C_7  and  N_8
REMARK    7  A    between atoms: N_8  and  C_9
REMARK    8  A    between atoms: N_8  and  C_13
REMARK    9  A    between atoms: C_9  and  C_10
REMARK   10  A    between atoms: C_13  and  C_14
REMARK   11  A    between atoms: C_17  and  C_18
REMARK                            x       y       z     vdW  Elec       q    Type
REMARK                         _______ _______ _______ _____ _____    ______ ____
ROOT
ATOM      1  C   UNL     1      22.489  -0.571  10.426  0.00  0.00    +0.000 C 
ENDROOT
BRANCH   1   2
ATOM      2  N   UNL     1      23.087  -1.665  11.273  0.00  0.00    +0.000 NA
BRANCH   2   3
ATOM      3  C   UNL     1      21.997  -2.555  11.824  0.00  0.00    +0.000 C 
BRANCH   3   5
ATOM      4  O   UNL     1      21.676  -4.902  12.271  0.00  0.00    +0.000 OA
ATOM      5  C   UNL     1      22.029  -4.059  11.382  0.00  0.00    +0.000 C 
ATOM      6  O   UNL     1      22.567  -4.318  10.258  0.00  0.00    +0.000 OA
ENDBRANCH   3   5
ENDBRANCH   2   3
BRANCH   2   7
ATOM      7  C   UNL     1      23.824  -1.043  12.439  0.00  0.00    +0.000 C 
BRANCH   7   8
ATOM      8  C   UNL     1      24.979  -1.897  13.067  0.00  0.00    +0.000 C 
ATOM      9  O   UNL     1      25.327  -2.933  12.414  0.00  0.00    +0.000 OA
ATOM     10  O   UNL     1      25.343  -1.590  14.249  0.00  0.00    +0.000 OA
ENDBRANCH   7   8
ENDBRANCH   2   7
ENDBRANCH   1   2
BRANCH   1  11
ATOM     11  C   UNL     1      23.414   0.672  10.127  0.00  0.00    +0.000 C 
BRANCH  11  12
ATOM     12  N   UNL     1      22.749   1.962   9.730  0.00  0.00    +0.000 NA
BRANCH  12  13
ATOM     13  C   UNL     1      21.250   1.774   9.697  0.00  0.00    +0.000 C 
BRANCH  13  14
ATOM     14  C   UNL     1      20.415   2.998   9.174  0.00  0.00    +0.000 C 
ATOM     15  O   UNL     1      20.794   3.493   8.062  0.00  0.00    +0.000 OA
ATOM     16  O   UNL     1      19.561   3.495   9.973  0.00  0.00    +0.000 OA
ENDBRANCH  13  14
ENDBRANCH  12  13
BRANCH  12  17
ATOM     17  C   UNL     1      23.074   3.031  10.746  0.00  0.00    +0.000 C 
BRANCH  17  18
ATOM     18  C   UNL     1      23.203   2.562  12.235  0.00  0.00    +0.000 C 
ATOM     19  O   UNL     1      24.368   2.519  12.744  0.00  0.00    +0.000 OA
ATOM     20  O   UNL     1      22.095   2.419  12.854  0.00  0.00    +0.000 OA
ENDBRANCH  17  18
ENDBRANCH  12  17
ENDBRANCH  11  12
ENDBRANCH   1  11
TORSDOF 11
ENDMDL
MODEL 3
REMARK VINA RESULT:      -5.6      2.288      4.687
REMARK  Name = 
REMARK  11 active torsions:
REMARK  status: ('A' for Active; 'I' for Inactive)
REMARK    1  A    between atoms: C_2  and  C_4
REMARK    2  A    between atoms: C_4  and  N_5
REMARK    3  A    between atoms: N_5  and  C_6
REMARK    4  A    between atoms: N_5  and  C_17
REMARK    5  A    between atoms: C_6  and  C_7
REMARK    6  A    between atoms: C_7  and  N_8
REMARK    7  A    between atoms: N_8  and  C_9
REMARK    8  A    between atoms: N_8  and  C_13
REMARK    9  A    between atoms: C_9  and  C_10
REMARK   10  A    between atoms: C_13  and  C_14
REMARK   11  A    between atoms: C_17  and  C_18
REMARK                            x       y       z     vdW  Elec       q    Type
REMARK                         _______ _______ _______ _____ _____    ______ ____
ROOT
ATOM      1  C   UNL     1      22.571   0.296  11.601  0.00  0.00    +0.000 C 
ENDROOT
BRANCH   1   2
ATOM      2  N   UNL     1      22.888  -1.150  11.886  0.00  0.00    +0.000 NA
BRANCH   2   3
ATOM      3  C   UNL     1      24.354  -1.422  11.641  0.00  0.00    +0.000 C 
BRANCH   3   5
ATOM      4  O   UNL     1      25.223  -1.692  13.872  0.00  0.00    +0.000 OA
ATOM      5  C   UNL     1      25.104  -2.257  12.736  0.00  0.00    +0.000 C 
ATOM      6  O   UNL     1      25.676  -3.327  12.353  0.00  0.00    +0.000 OA
ENDBRANCH   3   5
ENDBRANCH   2   3
BRANCH   2   7
ATOM      7  C   UNL     1      22.082  -2.027  10.952  0.00  0.00    +0.000 C 
BRANCH   7   8
ATOM      8  C   UNL     1      22.159  -3.571  11.210  0.00  0.00    +0.000 C 
ATOM      9  O   UNL     1      22.568  -4.282  10.235  0.00  0.00    +0.000 OA
ATOM     10  O   UNL     1      21.643  -3.998  12.294  0.00  0.00    +0.000 OA
ENDBRANCH   7   8
ENDBRANCH   2   7
ENDBRANCH   1   2
BRANCH   1  11
ATOM     11  C   UNL     1      23.629   1.359  12.096  0.00  0.00    +0.000 C 
BRANCH  11  12
ATOM     12  N   UNL     1      24.500   2.016  11.061  0.00  0.00    +0.000 NA
BRANCH  12  13
ATOM     13  C   UNL     1      23.733   3.125  10.378  0.00  0.00    +0.000 C 
BRANCH  13  14
ATOM     14  C   UNL     1      23.353   2.873   8.874  0.00  0.00    +0.000 C 
ATOM     15  O   UNL     1      23.299   3.910   8.134  0.00  0.00    +0.000 OA
ATOM     16  O   UNL     1      22.964   1.703   8.568  0.00  0.00    +0.000 OA
ENDBRANCH  13  14
ENDBRANCH  12  13
BRANCH  12  17
ATOM     17  C   UNL     1      25.713   2.618  11.731  0.00  0.00    +0.000 C 
BRANCH  17  18
ATOM     18  C   UNL     1      26.791   1.610  12.258  0.00  0.00    +0.000 C 
ATOM     19  O   UNL     1      27.062   1.630  13.500  0.00  0.00    +0.000 OA
ATOM     20  O   UNL     1      27.185   0.745  11.405  0.00  0.00    +0.000 OA
ENDBRANCH  17  18
ENDBRANCH  12  17
ENDBRANCH  11  12
ENDBRANCH   1  11
TORSDOF 11
ENDMDL
MODEL 4
REMARK VINA RESULT:      -5.4      1.168      3.837
REMARK  Name = 
REMARK  11 active torsions:
REMARK  status: ('A' for Active; 'I' for Inactive)
REMARK    1  A    between atoms: C_2  and  C_4
REMARK    2  A    between atoms: C_4  and  N_5
REMARK    3  A    between atoms: N_5  and  C_6
REMARK    4  A    between atoms: N_5  and  C_17
REMARK    5  A    between atoms: C_6  and  C_7
REMARK    6  A    between atoms: C_7  and  N_8
REMARK    7  A    between atoms: N_8  and  C_9
REMARK    8  A    between atoms: N_8  and  C_13
REMARK    9  A    between atoms: C_9  and  C_10
REMARK   10  A    between atoms: C_13  and  C_14
REMARK   11  A    between atoms: C_17  and  C_18
REMARK                            x       y       z     vdW  Elec       q    Type
REMARK                         _______ _______ _______ _____ _____    ______ ____
ROOT
ATOM      1  C   UNL     1      22.372  -0.247  10.338  0.00  0.00    +0.000 C 
ENDROOT
BRANCH   1   2
ATOM      2  N   UNL     1      22.954  -1.311  11.234  0.00  0.00    +0.000 NA
BRANCH   2   3
ATOM      3  C   UNL     1      24.418  -1.037  11.488  0.00  0.00    +0.000 C 
BRANCH   3   5
ATOM      4  O   UNL     1      25.259  -2.589  13.129  0.00  0.00    +0.000 OA
ATOM      5  C   UNL     1      24.954  -1.368  12.924  0.00  0.00    +0.000 C 
ATOM      6  O   UNL     1      24.868  -0.448  13.798  0.00  0.00    +0.000 OA
ENDBRANCH   3   5
ENDBRANCH   2   3
BRANCH   2   7
ATOM      7  C   UNL     1      22.836  -2.655  10.549  0.00  0.00    +0.000 C 
BRANCH   7   8
ATOM      8  C   UNL     1      22.058  -3.769  11.331  0.00  0.00    +0.000 C 
ATOM      9  O   UNL     1      21.888  -3.562  12.577  0.00  0.00    +0.000 OA
ATOM     10  O   UNL     1      21.824  -4.853  10.705  0.00  0.00    +0.000 OA
ENDBRANCH   7   8
ENDBRANCH   2   7
ENDBRANCH   1   2
BRANCH   1  11
ATOM     11  C   UNL     1      23.271   1.025  10.080  0.00  0.00    +0.000 C 
BRANCH  11  12
ATOM     12  N   UNL     1      22.594   2.368  10.049  0.00  0.00    +0.000 NA
BRANCH  12  13
ATOM     13  C   UNL     1      21.095   2.182   9.981  0.00  0.00    +0.000 C 
BRANCH  13  14
ATOM     14  C   UNL     1      20.288   3.351   9.311  0.00  0.00    +0.000 C 
ATOM     15  O   UNL     1      19.330   3.832  10.002  0.00  0.00    +0.000 OA
ATOM     16  O   UNL     1      20.535   3.595   8.089  0.00  0.00    +0.000 OA
ENDBRANCH  13  14
ENDBRANCH  12  13
BRANCH  12  17
ATOM     17  C   UNL     1      22.924   3.128  11.312  0.00  0.00    +0.000 C 
BRANCH  17  18
ATOM     18  C   UNL     1      22.067   2.784  12.578  0.00  0.00    +0.000 C 
ATOM     19  O   UNL     1      22.396   1.759  13.255  0.00  0.00    +0.000 OA
ATOM     20  O   UNL     1      21.206   3.668  12.904  0.00  0.00    +0.000 OA
ENDBRANCH  17  18
ENDBRANCH  12  17
ENDBRANCH  11  12
ENDBRANCH   1  11
TORSDOF 11
ENDMDL
MODEL 5
REMARK VINA RESULT:      -5.3     19.855     23.815
REMARK  Name = 
REMARK  11 active torsions:
REMARK  status: ('A' for Active; 'I' for Inactive)
REMARK    1  A    between atoms: C_2  and  C_4
REMARK    2  A    between atoms: C_4  and  N_5
REMARK    3  A    between atoms: N_5  and  C_6
REMARK    4  A    between atoms: N_5  and  C_17
REMARK    5  A    between atoms: C_6  and  C_7
REMARK    6  A    between atoms: C_7  and  N_8
REMARK    7  A    between atoms: N_8  and  C_9
REMARK    8  A    between atoms: N_8  and  C_13
REMARK    9  A    between atoms: C_9  and  C_10
REMARK   10  A    between atoms: C_13  and  C_14
REMARK   11  A    between atoms: C_17  and  C_18
REMARK                            x       y       z     vdW  Elec       q    Type
REMARK                         _______ _______ _______ _____ _____    ______ ____
ROOT
ATOM      1  C   UNL     1      10.741 -19.547   7.400  0.00  0.00    +0.000 C 
ENDROOT
BRANCH   1   2
ATOM      2  N   UNL     1      10.817 -18.050   7.244  0.00  0.00    +0.000 NA
BRANCH   2   3
ATOM      3  C   UNL     1      11.334 -17.418   8.516  0.00  0.00    +0.000 C 
BRANCH   3   5
ATOM      4  O   UNL     1      13.107 -16.199   7.430  0.00  0.00    +0.000 OA
ATOM      5  C   UNL     1      12.799 -16.860   8.475  0.00  0.00    +0.000 C 
ATOM      6  O   UNL     1      13.593 -17.259   9.385  0.00  0.00    +0.000 OA
ENDBRANCH   3   5
ENDBRANCH   2   3
BRANCH   2   7
ATOM      7  C   UNL     1       9.430 -17.508   6.977  0.00  0.00    +0.000 C 
BRANCH   7   8
ATOM      8  C   UNL     1       8.264 -18.139   7.815  0.00  0.00    +0.000 C 
ATOM      9  O   UNL     1       7.460 -18.892   7.176  0.00  0.00    +0.000 OA
ATOM     10  O   UNL     1       8.114 -17.709   9.005  0.00  0.00    +0.000 OA
ENDBRANCH   7   8
ENDBRANCH   2   7
ENDBRANCH   1   2
BRANCH   1  11
ATOM     11  C   UNL     1      11.632 -20.183   8.538  0.00  0.00    +0.000 C 
BRANCH  11  12
ATOM     12  N   UNL     1      11.006 -21.233   9.414  0.00  0.00    +0.000 NA
BRANCH  12  13
ATOM     13  C   UNL     1       9.568 -21.450   9.003  0.00  0.00    +0.000 C 
BRANCH  13  14
ATOM     14  C   UNL     1       8.507 -21.402  10.161  0.00  0.00    +0.000 C 
ATOM     15  O   UNL     1       7.380 -20.886   9.860  0.00  0.00    +0.000 OA
ATOM     16  O   UNL     1       8.912 -21.711  11.325  0.00  0.00    +0.000 OA
ENDBRANCH  13  14
ENDBRANCH  12  13
BRANCH  12  17
ATOM     17  C   UNL     1      11.751 -22.536   9.250  0.00  0.00    +0.000 C 
BRANCH  17  18
ATOM     18  C   UNL     1      13.254 -22.543   9.695  0.00  0.00    +0.000 C 
ATOM     19  O   UNL     1      14.141 -22.580   8.785  0.00  0.00    +0.000 OA
ATOM     20  O   UNL     1      13.449 -22.346  10.942  0.00  0.00    +0.000 OA
ENDBRANCH  17  18
ENDBRANCH  12  17
ENDBRANCH  11  12
ENDBRANCH   1  11
TORSDOF 11
ENDMDL
MODEL 6
REMARK VINA RESULT:      -5.3     19.440     21.363
REMARK  Name = 
REMARK  11 active torsions:
REMARK  status: ('A' for Active; 'I' for Inactive)
REMARK    1  A    between atoms: C_2  and  C_4
REMARK    2  A    between atoms: C_4  and  N_5
REMARK    3  A    between atoms: N_5  and  C_6
REMARK    4  A    between atoms: N_5  and  C_17
REMARK    5  A    between atoms: C_6  and  C_7
REMARK    6  A    between atoms: C_7  and  N_8
REMARK    7  A    between atoms: N_8  and  C_9
REMARK    8  A    between atoms: N_8  and  C_13
REMARK    9  A    between atoms: C_9  and  C_10
REMARK   10  A    between atoms: C_13  and  C_14
REMARK   11  A    between atoms: C_17  and  C_18
REMARK                            x       y       z     vdW  Elec       q    Type
REMARK                         _______ _______ _______ _____ _____    ______ ____
ROOT
ATOM      1  C   UNL     1      13.352 -11.238  -3.981  0.00  0.00    +0.000 C 
ENDROOT
BRANCH   1   2
ATOM      2  N   UNL     1      14.842 -11.302  -3.763  0.00  0.00    +0.000 NA
BRANCH   2   3
ATOM      3  C   UNL     1      15.393 -12.605  -4.294  0.00  0.00    +0.000 C 
BRANCH   3   5
ATOM      4  O   UNL     1      16.803 -12.368  -6.234  0.00  0.00    +0.000 OA
ATOM      5  C   UNL     1      16.806 -12.544  -4.971  0.00  0.00    +0.000 C 
ATOM      6  O   UNL     1      17.806 -12.850  -4.247  0.00  0.00    +0.000 OA
ENDBRANCH   3   5
ENDBRANCH   2   3
BRANCH   2   7
ATOM      7  C   UNL     1      15.130 -11.237  -2.279  0.00  0.00    +0.000 C 
BRANCH   7   8
ATOM      8  C   UNL     1      16.251 -10.237  -1.831  0.00  0.00    +0.000 C 
ATOM      9  O   UNL     1      15.958  -8.999  -1.900  0.00  0.00    +0.000 OA
ATOM     10  O   UNL     1      17.405 -10.730  -1.612  0.00  0.00    +0.000 OA
ENDBRANCH   7   8
ENDBRANCH   2   7
ENDBRANCH   1   2
BRANCH   1  11
ATOM     11  C   UNL     1      12.766  -9.845  -4.436  0.00  0.00    +0.000 C 
BRANCH  11  12
ATOM     12  N   UNL     1      11.743  -9.840  -5.539  0.00  0.00    +0.000 NA
BRANCH  12  13
ATOM     13  C   UNL     1      12.155  -8.858  -6.612  0.00  0.00    +0.000 C 
BRANCH  13  14
ATOM     14  C   UNL     1      11.685  -7.374  -6.402  0.00  0.00    +0.000 C 
ATOM     15  O   UNL     1      12.609  -6.494  -6.398  0.00  0.00    +0.000 OA
ATOM     16  O   UNL     1      10.469  -7.195  -6.080  0.00  0.00    +0.000 OA
ENDBRANCH  13  14
ENDBRANCH  12  13
BRANCH  12  17
ATOM     17  C   UNL     1      11.662 -11.216  -6.157  0.00  0.00    +0.000 C 
BRANCH  17  18
ATOM     18  C   UNL     1      10.327 -12.005  -5.932  0.00  0.00    +0.000 C 
ATOM     19  O   UNL     1       9.237 -11.419  -6.221  0.00  0.00    +0.000 OA
ATOM     20  O   UNL     1      10.473 -13.236  -5.626  0.00  0.00    +0.000 OA
ENDBRANCH  17  18
ENDBRANCH  12  17
ENDBRANCH  11  12
ENDBRANCH   1  11
TORSDOF 11
ENDMDL
MODEL 7
REMARK VINA RESULT:      -5.3     21.202     23.628
REMARK  Name = 
REMARK  11 active torsions:
REMARK  status: ('A' for Active; 'I' for Inactive)
REMARK    1  A    between atoms: C_2  and  C_4
REMARK    2  A    between atoms: C_4  and  N_5
REMARK    3  A    between atoms: N_5  and  C_6
REMARK    4  A    between atoms: N_5  and  C_17
REMARK    5  A    between atoms: C_6  and  C_7
REMARK    6  A    between atoms: C_7  and  N_8
REMARK    7  A    between atoms: N_8  and  C_9
REMARK    8  A    between atoms: N_8  and  C_13
REMARK    9  A    between atoms: C_9  and  C_10
REMARK   10  A    between atoms: C_13  and  C_14
REMARK   11  A    between atoms: C_17  and  C_18
REMARK                            x       y       z     vdW  Elec       q    Type
REMARK                         _______ _______ _______ _____ _____    ______ ____
ROOT
ATOM      1  C   UNL     1      10.273 -21.305   7.427  0.00  0.00    +0.000 C 
ENDROOT
BRANCH   1   2
ATOM      2  N   UNL     1      11.665 -21.669   6.977  0.00  0.00    +0.000 NA
BRANCH   2   3
ATOM      3  C   UNL     1      11.649 -22.104   5.530  0.00  0.00    +0.000 C 
BRANCH   3   5
ATOM      4  O   UNL     1      13.854 -21.865   4.586  0.00  0.00    +0.000 OA
ATOM      5  C   UNL     1      12.669 -21.394   4.573  0.00  0.00    +0.000 C 
ATOM      6  O   UNL     1      12.283 -20.319   4.015  0.00  0.00    +0.000 OA
ENDBRANCH   3   5
ENDBRANCH   2   3
BRANCH   2   7
ATOM      7  C   UNL     1      12.170 -22.824   7.813  0.00  0.00    +0.000 C 
BRANCH   7   8
ATOM      8  C   UNL     1      13.319 -22.498   8.828  0.00  0.00    +0.000 C 
ATOM      9  O   UNL     1      12.986 -21.814   9.849  0.00  0.00    +0.000 OA
ATOM     10  O   UNL     1      14.506 -22.783   8.462  0.00  0.00    +0.000 OA
ENDBRANCH   7   8
ENDBRANCH   2   7
ENDBRANCH   1   2
BRANCH   1  11
ATOM     11  C   UNL     1       9.401 -20.467   6.411  0.00  0.00    +0.000 C 
BRANCH  11  12
ATOM     12  N   UNL     1       9.336 -18.977   6.605  0.00  0.00    +0.000 NA
BRANCH  12  13
ATOM     13  C   UNL     1       7.924 -18.569   6.956  0.00  0.00    +0.000 C 
BRANCH  13  14
ATOM     14  C   UNL     1       7.622 -18.383   8.487  0.00  0.00    +0.000 C 
ATOM     15  O   UNL     1       7.155 -19.406   9.089  0.00  0.00    +0.000 OA
ATOM     16  O   UNL     1       7.698 -17.202   8.949  0.00  0.00    +0.000 OA
ENDBRANCH  13  14
ENDBRANCH  12  13
BRANCH  12  17
ATOM     17  C   UNL     1      10.245 -18.576   7.743  0.00  0.00    +0.000 C 
BRANCH  17  18
ATOM     18  C   UNL     1      11.513 -17.738   7.363  0.00  0.00    +0.000 C 
ATOM     19  O   UNL     1      12.264 -18.185   6.440  0.00  0.00    +0.000 OA
ATOM     20  O   UNL     1      11.585 -16.588   7.915  0.00  0.00    +0.000 OA
ENDBRANCH  17  18
ENDBRANCH  12  17
ENDBRANCH  11  12
ENDBRANCH   1  11
TORSDOF 11
ENDMDL
MODEL 8
REMARK VINA RESULT:      -5.3      1.885      2.351
REMARK  Name = 
REMARK  11 active torsions:
REMARK  status: ('A' for Active; 'I' for Inactive)
REMARK    1  A    between atoms: C_2  and  C_4
REMARK    2  A    between atoms: C_4  and  N_5
REMARK    3  A    between atoms: N_5  and  C_6
REMARK    4  A    between atoms: N_5  and  C_17
REMARK    5  A    between atoms: C_6  and  C_7
REMARK    6  A    between atoms: C_7  and  N_8
REMARK    7  A    between atoms: N_8  and  C_9
REMARK    8  A    between atoms: N_8  and  C_13
REMARK    9  A    between atoms: C_9  and  C_10
REMARK   10  A    between atoms: C_13  and  C_14
REMARK   11  A    between atoms: C_17  and  C_18
REMARK                            x       y       z     vdW  Elec       q    Type
REMARK                         _______ _______ _______ _____ _____    ______ ____
ROOT
ATOM      1  C   UNL     1      22.447  -0.544  10.571  0.00  0.00    +0.000 C 
ENDROOT
BRANCH   1   2
ATOM      2  N   UNL     1      23.040  -1.650  11.405  0.00  0.00    +0.000 NA
BRANCH   2   3
ATOM      3  C   UNL     1      21.950  -2.565  11.914  0.00  0.00    +0.000 C 
BRANCH   3   5
ATOM      4  O   UNL     1      21.628  -4.927  12.267  0.00  0.00    +0.000 OA
ATOM      5  C   UNL     1      21.994  -4.051  11.416  0.00  0.00    +0.000 C 
ATOM      6  O   UNL     1      22.550  -4.266  10.293  0.00  0.00    +0.000 OA
ENDBRANCH   3   5
ENDBRANCH   2   3
BRANCH   2   7
ATOM      7  C   UNL     1      23.745  -1.045  12.600  0.00  0.00    +0.000 C 
BRANCH   7   8
ATOM      8  C   UNL     1      24.985  -1.833  13.147  0.00  0.00    +0.000 C 
ATOM      9  O   UNL     1      25.308  -2.885  12.506  0.00  0.00    +0.000 OA
ATOM     10  O   UNL     1      25.449  -1.463  14.275  0.00  0.00    +0.000 OA
ENDBRANCH   7   8
ENDBRANCH   2   7
ENDBRANCH   1   2
BRANCH   1  11
ATOM     11  C   UNL     1      23.465   0.479   9.931  0.00  0.00    +0.000 C 
BRANCH  11  12
ATOM     12  N   UNL     1      23.579   1.841  10.560  0.00  0.00    +0.000 NA
BRANCH  12  13
ATOM     13  C   UNL     1      23.872   2.872   9.494  0.00  0.00    +0.000 C 
BRANCH  13  14
ATOM     14  C   UNL     1      24.744   4.099   9.945  0.00  0.00    +0.000 C 
ATOM     15  O   UNL     1      24.234   5.249   9.735  0.00  0.00    +0.000 OA
ATOM     16  O   UNL     1      25.936   3.855  10.311  0.00  0.00    +0.000 OA
ENDBRANCH  13  14
ENDBRANCH  12  13
BRANCH  12  17
ATOM     17  C   UNL     1      22.272   2.201  11.225  0.00  0.00    +0.000 C 
BRANCH  17  18
ATOM     18  C   UNL     1      21.236   2.985  10.350  0.00  0.00    +0.000 C 
ATOM     19  O   UNL     1      20.527   2.319   9.531  0.00  0.00    +0.000 OA
ATOM     20  O   UNL     1      21.087   4.215  10.661  0.00  0.00    +0.000 OA
ENDBRANCH  17  18
ENDBRANCH  12  17
ENDBRANCH  11  12
ENDBRANCH   1  11
TORSDOF 11
ENDMDL
MODEL 9
REMARK VINA RESULT:      -5.2     19.666     21.749
REMARK  Name = 
REMARK  11 active torsions:
REMARK  status: ('A' for Active; 'I' for Inactive)
REMARK    1  A    between atoms: C_2  and  C_4
REMARK    2  A    between atoms: C_4  and  N_5
REMARK    3  A    between atoms: N_5  and  C_6
REMARK    4  A    between atoms: N_5  and  C_17
REMARK    5  A    between atoms: C_6  and  C_7
REMARK    6  A    between atoms: C_7  and  N_8
REMARK    7  A    between atoms: N_8  and  C_9
REMARK    8  A    between atoms: N_8  and  C_13
REMARK    9  A    between atoms: C_9  and  C_10
REMARK   10  A    between atoms: C_13  and  C_14
REMARK   11  A    between atoms: C_17  and  C_18
REMARK                            x       y       z     vdW  Elec       q    Type
REMARK                         _______ _______ _______ _____ _____    ______ ____
ROOT
ATOM      1  C   UNL     1      13.398 -11.880  -3.993  0.00  0.00    +0.000 C 
ENDROOT
BRANCH   1   2
ATOM      2  N   UNL     1      14.874 -11.643  -3.802  0.00  0.00    +0.000 NA
BRANCH   2   3
ATOM      3  C   UNL     1      15.669 -12.768  -4.423  0.00  0.00    +0.000 C 
BRANCH   3   5
ATOM      4  O   UNL     1      18.024 -13.272  -4.314  0.00  0.00    +0.000 OA
ATOM      5  C   UNL     1      17.163 -12.455  -4.782  0.00  0.00    +0.000 C 
ATOM      6  O   UNL     1      17.399 -11.339  -5.343  0.00  0.00    +0.000 OA
ENDBRANCH   3   5
ENDBRANCH   2   3
BRANCH   2   7
ATOM      7  C   UNL     1      15.182 -11.610  -2.320  0.00  0.00    +0.000 C 
BRANCH   7   8
ATOM      8  C   UNL     1      16.148 -10.473  -1.837  0.00  0.00    +0.000 C 
ATOM      9  O   UNL     1      15.741  -9.279  -2.017  0.00  0.00    +0.000 OA
ATOM     10  O   UNL     1      17.317 -10.827  -1.477  0.00  0.00    +0.000 OA
ENDBRANCH   7   8
ENDBRANCH   2   7
ENDBRANCH   1   2
BRANCH   1  11
ATOM     11  C   UNL     1      12.578 -10.706  -4.659  0.00  0.00    +0.000 C 
BRANCH  11  12
ATOM     12  N   UNL     1      12.146 -10.876  -6.090  0.00  0.00    +0.000 NA
BRANCH  12  13
ATOM     13  C   UNL     1      10.683 -10.519  -6.227  0.00  0.00    +0.000 C 
BRANCH  13  14
ATOM     14  C   UNL     1       9.709 -11.715  -6.525  0.00  0.00    +0.000 C 
ATOM     15  O   UNL     1      10.068 -12.851  -6.067  0.00  0.00    +0.000 OA
ATOM     16  O   UNL     1       8.755 -11.493  -7.334  0.00  0.00    +0.000 OA
ENDBRANCH  13  14
ENDBRANCH  12  13
BRANCH  12  17
ATOM     17  C   UNL     1      12.948  -9.948  -6.972  0.00  0.00    +0.000 C 
BRANCH  17  18
ATOM     18  C   UNL     1      14.482 -10.245  -7.084  0.00  0.00    +0.000 C 
ATOM     19  O   UNL     1      14.835 -11.396  -7.494  0.00  0.00    +0.000 OA
ATOM     20  O   UNL     1      15.242  -9.235  -6.902  0.00  0.00    +0.000 OA
ENDBRANCH  17  18
ENDBRANCH  12  17
ENDBRANCH  11  12
ENDBRANCH   1  11
TORSDOF 11
ENDMDL
