REMARK  4 active torsions:
REMARK  status: ('A' for Active; 'I' for Inactive)
REMARK    1  A    between atoms: C2_2  and  C3_3 
REMARK    2  A    between atoms: C5_6  and  N1_7 
REMARK       I    between atoms: N1_7  and  C6_8 
REMARK       I    between atoms: C6_8  and  N2_10 
REMARK    3  A    between atoms: N2_10  and  C7_11 
REMARK    4  A    between atoms: C7_11  and  C8_12 
ROOT
HETATM    1  N1  A1J X   1     -10.066  -3.891  -0.516  1.00 20.00    -0.287 N 
HETATM    2  C6  A1J X   1      -9.892  -2.584  -0.193  1.00 20.00     0.322 C 
HETATM    3  O1  A1J X   1     -10.172  -1.667  -0.961  1.00 20.00    -0.247 OA
HETATM    4  N2  A1J X   1      -9.392  -2.341   1.022  1.00 20.00    -0.342 N 
HETATM    5  H10 A1J X   1      -9.760  -4.546   0.145  1.00 20.00     0.172 HD
HETATM    6  H11 A1J X   1      -9.078  -3.095   1.564  1.00 20.00     0.164 HD
ENDROOT
BRANCH   4   7
HETATM    7  C7  A1J X   1      -9.299  -0.996   1.570  1.00 20.00     0.136 C 
BRANCH   7   8
HETATM    8  C8  A1J X   1      -9.046  -0.993   3.075  1.00 20.00     0.101 C 
HETATM    9  C9  A1J X   1      -9.084   0.441   3.583  1.00 20.00     0.244 C 
HETATM   10  N3  A1J X   1     -10.446   1.026   3.408  1.00 20.00    -0.074 N 
HETATM   11  H2  A1J X   1     -10.668   1.064   2.382  1.00 20.00     0.277 HD
HETATM   12  H3  A1J X   1     -10.449   1.999   3.803  1.00 20.00     0.277 HD
HETATM   13  C10 A1J X   1     -11.501   0.223   4.099  1.00 20.00     0.238 C 
HETATM   14  C11 A1J X   1     -11.484  -1.202   3.574  1.00 20.00     0.107 C 
HETATM   15  C12 A1J X   1     -10.109  -1.845   3.763  1.00 20.00     0.252 C 
HETATM   16  F2  A1J X   1     -10.113  -3.049   3.234  1.00 20.00    -0.206 F 
HETATM   17  F1  A1J X   1      -9.830  -1.933   5.088  1.00 20.00    -0.206 F 
ENDBRANCH   7   8
ENDBRANCH   4   7
BRANCH   1  18
HETATM   18  C5  A1J X   1     -10.636  -4.414  -1.691  1.00 20.00     0.174 A 
HETATM   19  N4  A1J X   1     -10.764  -5.699  -1.911  1.00 20.00    -0.228 NA
HETATM   20  C3  A1J X   1     -11.346  -5.942  -3.137  1.00 20.00     0.043 A 
HETATM   21  C4  A1J X   1     -11.675  -4.829  -3.858  1.00 20.00     0.080 A 
HETATM   22  S1  A1J X   1     -11.230  -3.418  -2.973  1.00 20.00    -0.062 SA
BRANCH  20  23
HETATM   23  C2  A1J X   1     -11.601  -7.336  -3.645  1.00 20.00     0.055 C 
HETATM   24  C1  A1J X   1     -10.360  -7.995  -4.226  1.00 20.00     0.011 C 
ENDBRANCH  20  23
ENDBRANCH   1  18
TORSDOF 4
