REMARK  7 active torsions:
REMARK  status: ('A' for Active; 'I' for Inactive)
REMARK    1  A    between atoms: C2_2  and  C3_3 
REMARK    2  A    between atoms: C8_8  and  C9_9 
REMARK       I    between atoms: C9_9  and  N1_11 
REMARK    3  A    between atoms: N1_11  and  C10_12 
REMARK    4  A    between atoms: C10_12  and  C11_13 
REMARK    5  A    between atoms: C13_15  and  N2_16 
REMARK       I    between atoms: N2_16  and  C14_17 
REMARK    6  A    between atoms: C14_17  and  C15_19 
REMARK    7  A    between atoms: C15_19  and  N3_20 
ROOT
HETATM    1  C11 A6B X   1       5.548  -0.493   1.831  1.00 20.00     0.007 C 
HETATM    2  C12 A6B X   1       5.995  -1.954   1.462  1.00 20.00     0.031 C 
HETATM    3  C13 A6B X   1       4.758  -2.515   2.208  1.00 20.00     0.085 C 
HETATM    4  C17 A6B X   1       4.311  -1.054   2.577  1.00 20.00     0.031 C 
ENDROOT
BRANCH   1   5
HETATM    5  C10 A6B X   1       5.207   0.373   0.629  1.00 20.00     0.127 C 
BRANCH   5   6
HETATM    6  N1  A6B X   1       4.248  -0.263  -0.262  1.00 20.00    -0.356 N 
HETATM    7  H12 A6B X   1       4.580  -0.850  -0.973  1.00 20.00     0.162 HD
HETATM    8  C9  A6B X   1       2.930  -0.074  -0.144  1.00 20.00     0.252 C 
HETATM    9  O1  A6B X   1       2.423   0.429   0.845  1.00 20.00    -0.268 OA
BRANCH   8  10
HETATM   10  C8  A6B X   1       2.087  -0.515  -1.297  1.00 20.00     0.038 A 
HETATM   11  C3  A6B X   1       0.697  -0.474  -1.230  1.00 20.00    -0.043 A 
HETATM   12  C4  A6B X   1      -0.020  -0.906  -2.341  1.00 20.00     0.008 A 
HETATM   13  C5  A6B X   1       0.626  -1.367  -3.478  1.00 20.00     0.001 A 
HETATM   14  C6  A6B X   1       2.001  -1.400  -3.525  1.00 20.00     0.001 A 
HETATM   15  C7  A6B X   1       2.739  -0.966  -2.434  1.00 20.00     0.017 A 
BRANCH  11  16
HETATM   16  C2  A6B X   1      -0.007   0.022   0.004  1.00 20.00     0.035 C 
HETATM   17  C1  A6B X   1       0.001  -0.988   1.141  1.00 20.00     0.010 C 
ENDBRANCH  11  16
ENDBRANCH   8  10
ENDBRANCH   5   6
ENDBRANCH   1   5
BRANCH   3  18
HETATM   18  N2  A6B X   1       3.814  -3.228   1.345  1.00 20.00    -0.355 N 
HETATM   19  H17 A6B X   1       3.775  -2.995   0.394  1.00 20.00     0.162 HD
HETATM   20  C14 A6B X   1       3.004  -4.184   1.810  1.00 20.00     0.237 C 
HETATM   21  O2  A6B X   1       2.905  -4.452   2.996  1.00 20.00    -0.272 OA
BRANCH  20  22
HETATM   22  C15 A6B X   1       2.201  -4.932   0.764  1.00 20.00     0.256 C 
BRANCH  22  23
HETATM   23  N3  A6B X   1       1.244  -5.869   1.352  1.00 20.00    -0.233 N 
HETATM   24  C16 A6B X   1      -0.070  -5.751   1.582  1.00 20.00     0.256 A 
HETATM   25  N4  A6B X   1      -0.509  -6.874   2.132  1.00 20.00    -0.122 NA
HETATM   26  N5  A6B X   1       0.580  -7.682   2.232  1.00 20.00    -0.024 NA
HETATM   27  N6  A6B X   1       1.639  -7.094   1.773  1.00 20.00    -0.044 NA
ENDBRANCH  22  23
ENDBRANCH  20  22
ENDBRANCH   3  18
TORSDOF 7
