REMARK  5 active torsions:
REMARK  status: ('A' for Active; 'I' for Inactive)
REMARK    1  A    between atoms: C4_4  and  C5_5 
REMARK    2  A    between atoms: C5_5  and  N1_6 
REMARK       I    between atoms: N2_9  and  C8_10 
REMARK       I    between atoms: C8_10  and  N3_12 
REMARK    3  A    between atoms: N3_12  and  C9_13 
REMARK    4  A    between atoms: C9_13  and  C10_14 
REMARK    5  A    between atoms: N4_17  and  C13_19 
ROOT
HETATM    1  N1  A74 X   1       0.136  -4.719  -2.979  1.00 20.00     0.097 N 
HETATM    2  C6  A74 X   1      -0.766  -5.699  -2.390  1.00 20.00     0.292 C 
HETATM    3  C7  A74 X   1      -1.692  -6.284  -3.423  1.00 20.00     0.158 C 
HETATM    4  N2  A74 X   1      -2.421  -5.218  -4.087  1.00 20.00    -0.331 N 
HETATM    5  C8  A74 X   1      -3.782  -5.181  -4.176  1.00 20.00     0.318 C 
HETATM    6  O1  A74 X   1      -4.470  -5.970  -3.502  1.00 20.00    -0.247 OA
HETATM    7  N3  A74 X   1      -4.328  -4.281  -5.003  1.00 20.00    -0.343 N 
HETATM    8  C17 A74 X   1      -1.559  -4.198  -4.644  1.00 20.00     0.158 C 
HETATM    9  C18 A74 X   1      -0.629  -3.652  -3.596  1.00 20.00     0.292 C 
HETATM   10  H13 A74 X   1      -3.752  -3.706  -5.550  1.00 20.00     0.164 HD
ENDROOT
BRANCH   7  11
HETATM   11  C9  A74 X   1      -5.774  -4.154  -5.093  1.00 20.00     0.130 C 
BRANCH  11  12
HETATM   12  C10 A74 X   1      -6.338  -3.164  -4.076  1.00 20.00     0.031 C 
HETATM   13  C11 A74 X   1      -7.869  -3.095  -4.186  1.00 20.00     0.035 C 
HETATM   14  C12 A74 X   1      -8.412  -3.532  -2.838  1.00 20.00     0.236 C 
HETATM   15  N4  A74 X   1      -7.310  -4.374  -2.240  1.00 20.00    -0.066 N 
HETATM   16  H2  A74 X   1      -7.389  -4.414  -1.194  1.00 20.00     0.280 HD
HETATM   17  C16 A74 X   1      -6.058  -3.637  -2.665  1.00 20.00     0.241 C 
BRANCH  15  18
HETATM   18  C13 A74 X   1      -7.332  -5.763  -2.795  1.00 20.00     0.188 C 
HETATM   19  C14 A74 X   1      -8.560  -6.599  -2.616  1.00 20.00     0.035 C 
HETATM   20  C15 A74 X   1      -8.251  -6.007  -3.955  1.00 20.00     0.035 C 
ENDBRANCH  15  18
ENDBRANCH  11  12
ENDBRANCH   7  11
BRANCH   1  21
HETATM   21  C5  A74 X   1       1.002  -4.155  -1.924  1.00 20.00     0.333 C 
BRANCH  21  22
HETATM   22  C4  A74 X   1       1.885  -3.059  -2.446  1.00 20.00     0.092 A 
HETATM   23  C3  A74 X   1       3.199  -3.182  -2.971  1.00 20.00     0.065 A 
HETATM   24  C2  A74 X   1       3.561  -1.930  -3.303  1.00 20.00     0.077 A 
HETATM   25  O2  A74 X   1       2.550  -1.073  -3.014  1.00 20.00    -0.218 OA
HETATM   26  C1  A74 X   1       4.777  -1.304  -3.894  1.00 20.00     0.079 C 
HETATM   27  N5  A74 X   1       1.482  -1.809  -2.458  1.00 20.00    -0.131 NA
ENDBRANCH  21  22
ENDBRANCH   1  21
TORSDOF 5
