REMARK  4 active torsions:
REMARK  status: ('A' for Active; 'I' for Inactive)
REMARK    1  A    between atoms: C2_2  and  C3_3 
REMARK    2  A    between atoms: C3_3  and  C4_4 
REMARK       I    between atoms: C4_4  and  N1_6 
REMARK    3  A    between atoms: N1_6  and  C5_7 
REMARK       I    between atoms: N2_9  and  C7_10 
REMARK    4  A    between atoms: C7_10  and  C8_12 
ROOT
HETATM    1  C5  AA3 X   1      -4.102  -6.516   3.405  1.00 20.00     0.120 C 
HETATM    2  C6  AA3 X   1      -4.875  -6.503   2.074  1.00 20.00     0.152 C 
HETATM    3  N2  AA3 X   1      -4.862  -5.032   2.196  1.00 20.00    -0.348 N 
HETATM    4  C7  AA3 X   1      -5.661  -4.132   1.601  1.00 20.00     0.225 C 
HETATM    5  O2  AA3 X   1      -5.600  -2.936   1.829  1.00 20.00    -0.273 OA
HETATM    6  C16 AA3 X   1      -3.656  -5.087   3.046  1.00 20.00     0.152 C 
ENDROOT
BRANCH   4   7
HETATM    7  C8  AA3 X   1      -6.662  -4.694   0.610  1.00 20.00     0.106 C 
HETATM    8  C15 AA3 X   1      -8.012  -4.816   1.201  1.00 20.00     0.249 C 
HETATM    9  N3  AA3 X   1      -8.992  -3.892   0.586  1.00 20.00    -0.066 N 
HETATM   10  C14 AA3 X   1     -10.189  -3.303   1.229  1.00 20.00     0.235 C 
HETATM   11  H3  AA3 X   1      -9.368  -4.417  -0.244  1.00 20.00     0.280 HD
HETATM   12  C10 AA3 X   1      -8.099  -2.866   0.007  1.00 20.00     0.189 C 
HETATM   13  C13 AA3 X   1     -10.915  -2.381   0.248  1.00 20.00     0.028 C 
HETATM   14  C12 AA3 X   1     -10.011  -1.352  -0.300  1.00 20.00     0.004 C 
HETATM   15  C11 AA3 X   1      -8.846  -1.967  -0.955  1.00 20.00     0.033 C 
HETATM   16  C9  AA3 X   1      -6.965  -3.705  -0.519  1.00 20.00     0.049 C 
ENDBRANCH   4   7
BRANCH   1  17
HETATM   17  N1  AA3 X   1      -4.837  -6.612   4.659  1.00 20.00    -0.353 N 
HETATM   18  C4  AA3 X   1      -4.522  -7.456   5.654  1.00 20.00     0.217 C 
HETATM   19  O1  AA3 X   1      -3.607  -8.260   5.579  1.00 20.00    -0.274 OA
HETATM   20  H11 AA3 X   1      -5.609  -6.022   4.785  1.00 20.00     0.163 HD
BRANCH  18  21
HETATM   21  C3  AA3 X   1      -5.381  -7.355   6.900  1.00 20.00     0.102 C 
BRANCH  21  22
HETATM   22  C2  AA3 X   1      -4.998  -8.364   7.970  1.00 20.00     0.005 C 
HETATM   23  C1  AA3 X   1      -5.835  -8.256   9.221  1.00 20.00     0.005 C 
ENDBRANCH  21  22
ENDBRANCH  18  21
ENDBRANCH   1  17
TORSDOF 4
