REMARK  4 active torsions:
REMARK  status: ('A' for Active; 'I' for Inactive)
REMARK    1  A    between atoms: N1_2  and  C3_5 
REMARK    2  A    between atoms: C3_5  and  C4_6 
REMARK       I    between atoms: N2_11  and  C8_12 
REMARK    3  A    between atoms: C8_12  and  C9_14 
REMARK    4  A    between atoms: C9_14  and  C10_15 
ROOT
HETATM    1  C4  ACJ X   1      -2.723   0.279  -0.947  1.00 20.00     0.137 C 
HETATM    2  C5  ACJ X   1      -3.679  -0.859  -0.685  1.00 20.00     0.194 C 
HETATM    3  O1  ACJ X   1      -4.591  -1.043  -1.756  1.00 20.00    -0.387 OA
HETATM    4  C6  ACJ X   1      -3.886  -1.337  -2.953  1.00 20.00     0.187 C 
HETATM    5  C7  ACJ X   1      -2.937  -0.221  -3.320  1.00 20.00     0.152 C 
HETATM    6  N2  ACJ X   1      -2.006   0.014  -2.203  1.00 20.00    -0.341 N 
HETATM    7  C8  ACJ X   1      -0.668  -0.011  -2.318  1.00 20.00     0.229 C 
HETATM    8  O2  ACJ X   1      -0.090  -0.414  -3.325  1.00 20.00    -0.272 OA
ENDROOT
BRANCH   7   9
HETATM    9  C9  ACJ X   1       0.093   0.486  -1.136  1.00 20.00     0.045 C 
HETATM   10  C13 ACJ X   1       0.082   1.945  -0.794  1.00 20.00     0.021 C 
HETATM   11  C14 ACJ X   1       1.331   1.340  -1.331  1.00 20.00     0.021 C 
BRANCH   9  12
HETATM   12  C10 ACJ X   1       0.051  -0.567  -0.021  1.00 20.00     0.003 C 
HETATM   13  C11 ACJ X   1       1.222  -0.884   0.861  1.00 20.00     0.006 C 
HETATM   14  C12 ACJ X   1      -0.038  -0.337   1.455  1.00 20.00     0.006 C 
ENDBRANCH   9  12
ENDBRANCH   7   9
BRANCH   1  15
HETATM   15  C3  ACJ X   1      -3.498   1.581  -1.065  1.00 20.00     0.261 C 
BRANCH  15  16
HETATM   16  N1  ACJ X   1      -4.409   1.804   0.110  1.00 20.00    -0.077 N 
HETATM   17  C1  ACJ X   1      -3.777   1.600   1.455  1.00 20.00     0.269 C 
HETATM   18  H1  ACJ X   1      -5.181   1.096   0.030  1.00 20.00     0.279 HD
HETATM   19  C2  ACJ X   1      -5.057   3.155   0.047  1.00 20.00     0.269 C 
ENDBRANCH  15  16
ENDBRANCH   1  15
TORSDOF 4
