REMARK  7 active torsions:
REMARK  status: ('A' for Active; 'I' for Inactive)
REMARK    1  A    between atoms: C6_7  and  C7_8 
REMARK    2  A    between atoms: C7_8  and  O2_10 
REMARK    3  A    between atoms: O2_10  and  C8_11 
REMARK    4  A    between atoms: C8_11  and  C10_13 
REMARK       I    between atoms: C10_13  and  N1_15 
REMARK    5  A    between atoms: N1_15  and  C11_16 
REMARK    6  A    between atoms: C11_16  and  C14_20 
REMARK    7  A    between atoms: C17_23  and  N3_24 
ROOT
HETATM    1  C11 AXK X   1       3.301  -6.157   5.236  1.00 20.00     0.121 C 
HETATM    2  C12 AXK X   1       3.393  -7.589   5.766  1.00 20.00     0.055 C 
HETATM    3  C13 AXK X   1       4.224  -5.966   4.113  1.00 20.00     0.091 C 
HETATM    4  N2  AXK X   1       4.921  -5.859   3.222  1.00 20.00    -0.195 NA
ENDROOT
BRANCH   1   5
HETATM    5  N1  AXK X   1       1.925  -5.919   4.793  1.00 20.00    -0.337 N 
HETATM    6  H10 AXK X   1       1.199  -6.427   5.212  1.00 20.00     0.164 HD
HETATM    7  C10 AXK X   1       1.614  -5.000   3.801  1.00 20.00     0.248 C 
HETATM    8  O3  AXK X   1       2.444  -4.224   3.256  1.00 20.00    -0.271 OA
BRANCH   7   9
HETATM    9  C8  AXK X   1       0.199  -5.000   3.422  1.00 20.00     0.220 C 
HETATM   10  C9  AXK X   1      -0.325  -6.380   3.051  1.00 20.00     0.050 C 
BRANCH   9  11
HETATM   11  O2  AXK X   1       0.011  -4.191   2.238  1.00 20.00    -0.303 OA
BRANCH  11  12
HETATM   12  C7  AXK X   1       0.095  -2.870   2.436  1.00 20.00     0.299 C 
HETATM   13  O1  AXK X   1       0.226  -2.368   3.522  1.00 20.00    -0.259 OA
BRANCH  12  14
HETATM   14  C6  AXK X   1       0.007  -2.114   1.165  1.00 20.00     0.104 A 
HETATM   15  C17 AXK X   1       0.005  -0.728   1.188  1.00 20.00     0.051 A 
HETATM   16  C2  AXK X   1       0.008  -0.017   0.003  1.00 20.00    -0.035 A 
HETATM   17  C3  AXK X   1       0.018  -0.690  -1.209  1.00 20.00     0.012 A 
HETATM   18  C1  AXK X   1       0.000   1.493   0.028  1.00 20.00     0.050 C 
HETATM   19  C4  AXK X   1       0.020  -2.072  -1.232  1.00 20.00     0.044 A 
HETATM   20  C5  AXK X   1       0.017  -2.785  -0.043  1.00 20.00     0.135 A 
HETATM   21  F1  AXK X   1       0.024  -4.132  -0.065  1.00 20.00    -0.205 F 
BRANCH  15  22
HETATM   22  N3  AXK X   1      -0.000   0.010   2.395  1.00 20.00    -0.398 N 
HETATM   23  H22 AXK X   1      -0.214  -0.436   3.241  1.00 20.00     0.156 HD
HETATM   24  H21 AXK X   1       0.210   0.967   2.385  1.00 20.00     0.156 HD
ENDBRANCH  15  22
ENDBRANCH  12  14
ENDBRANCH  11  12
ENDBRANCH   9  11
ENDBRANCH   7   9
ENDBRANCH   1   5
BRANCH   1  25
HETATM   25  C14 AXK X   1       3.689  -5.176   6.334  1.00 20.00     0.020 C 
HETATM   26  C16 AXK X   1       2.802  -5.274   7.564  1.00 20.00     0.013 C 
HETATM   27  C15 AXK X   1       3.678  -3.721   5.853  1.00 20.00     0.013 C 
ENDBRANCH   1  25
TORSDOF 7
