REMARK  3 active torsions:
REMARK  status: ('A' for Active; 'I' for Inactive)
REMARK    1  A    between atoms: C2_2  and  C3_3 
REMARK    2  A    between atoms: C5_5  and  C6_6 
REMARK       I    between atoms: C6_6  and  N1_8 
REMARK       I    between atoms: N2_14  and  C12_15 
REMARK    3  A    between atoms: C12_15  and  C13_17 
ROOT
HETATM    1  C6  B0X X   1       3.035  -1.351  -1.062  1.00 20.00     0.243 C 
HETATM    2  O1  B0X X   1       2.441  -1.377   0.008  1.00 20.00    -0.268 OA
HETATM    3  N1  B0X X   1       4.353  -1.061  -1.149  1.00 20.00    -0.347 N 
HETATM    4  C7  B0X X   1       5.504  -1.574  -1.909  1.00 20.00     0.137 C 
HETATM    5  C8  B0X X   1       6.171  -1.898  -0.571  1.00 20.00    -0.005 C 
HETATM    6  C9  B0X X   1       5.280  -0.768  -0.044  1.00 20.00     0.137 C 
HETATM    7  C10 B0X X   1       5.825  -3.278  -0.021  1.00 20.00     0.033 C 
HETATM    8  C11 B0X X   1       6.338  -3.389   1.420  1.00 20.00     0.127 C 
HETATM    9  N2  B0X X   1       7.758  -3.017   1.446  1.00 20.00    -0.348 N 
HETATM   10  C12 B0X X   1       8.743  -3.945   1.505  1.00 20.00     0.255 C 
HETATM   11  O2  B0X X   1       9.868  -3.755   1.032  1.00 20.00    -0.267 OA
HETATM   12  C18 B0X X   1       8.161  -1.707   0.918  1.00 20.00     0.127 C 
HETATM   13  C19 B0X X   1       7.663  -1.583  -0.527  1.00 20.00     0.033 C 
ENDROOT
BRANCH   1  14
HETATM   14  C5  B0X X   1       2.291  -1.552  -2.346  1.00 20.00     0.076 C 
HETATM   15  C3  B0X X   1       0.976  -1.699  -2.463  1.00 20.00    -0.079 C 
HETATM   16  C4  B0X X   1       0.291  -2.166  -3.716  1.00 20.00     0.043 C 
BRANCH  15  17
HETATM   17  C2  B0X X   1       0.050  -1.399  -1.314  1.00 20.00     0.029 C 
HETATM   18  C1  B0X X   1      -1.157  -0.569  -1.723  1.00 20.00     0.010 C 
ENDBRANCH  15  17
ENDBRANCH   1  14
BRANCH  10  19
HETATM   19  C13 B0X X   1       8.407  -5.223   2.174  1.00 20.00     0.049 A 
HETATM   20  C17 B0X X   1       8.839  -6.431   1.661  1.00 20.00     0.136 A 
HETATM   21  N3  B0X X   1       8.560  -7.611   2.225  1.00 20.00    -0.232 NA
HETATM   22  C16 B0X X   1       7.821  -7.597   3.343  1.00 20.00     0.209 A 
HETATM   23  C15 B0X X   1       7.351  -6.434   3.927  1.00 20.00     0.064 A 
HETATM   24  F1  B0X X   1       7.527  -8.772   3.922  1.00 20.00    -0.184 F 
HETATM   25  C14 B0X X   1       7.650  -5.224   3.330  1.00 20.00     0.023 A 
ENDBRANCH  10  19
TORSDOF 3
