REMARK  4 active torsions:
REMARK  status: ('A' for Active; 'I' for Inactive)
REMARK    1  A    between atoms: O1_2  and  C2_3 
REMARK       I    between atoms: C2_3  and  N1_5 
REMARK    2  A    between atoms: C5_8  and  N2_9 
REMARK       I    between atoms: N2_9  and  C6_10 
REMARK    3  A    between atoms: C6_10  and  C7_12 
REMARK    4  A    between atoms: N4_17  and  C11_18 
ROOT
HETATM    1  C7  B3U X   1       0.281  -5.755  -0.715  1.00 20.00     0.128 A 
HETATM    2  C8  B3U X   1       0.951  -4.662  -1.210  1.00 20.00    -0.009 A 
HETATM    3  C9  B3U X   1       0.525  -3.214  -1.272  1.00 20.00     0.052 C 
HETATM    4  C10 B3U X   1       2.175  -5.160  -1.677  1.00 20.00     0.148 A 
HETATM    5  N3  B3U X   1       2.261  -6.480  -1.491  1.00 20.00    -0.183 NA
HETATM    6  N4  B3U X   1       1.091  -6.825  -0.893  1.00 20.00    -0.258 N 
ENDROOT
BRANCH   1   7
HETATM    7  C6  B3U X   1      -1.022  -5.958  -0.089  1.00 20.00     0.270 C 
HETATM    8  O3  B3U X   1      -1.421  -7.089   0.182  1.00 20.00    -0.266 OA
HETATM    9  N2  B3U X   1      -1.744  -4.850   0.169  1.00 20.00    -0.351 N 
HETATM   10  H12 B3U X   1      -1.359  -3.983  -0.078  1.00 20.00     0.163 HD
BRANCH   9  11
HETATM   11  C5  B3U X   1      -3.059  -4.858   0.789  1.00 20.00     0.087 C 
HETATM   12  C16 B3U X   1      -4.132  -4.992  -0.294  1.00 20.00     0.045 C 
HETATM   13  C17 B3U X   1      -4.010  -3.828  -1.275  1.00 20.00     0.130 C 
HETATM   14  N1  B3U X   1      -4.061  -2.564  -0.528  1.00 20.00    -0.328 N 
HETATM   15  C2  B3U X   1      -4.941  -1.603  -0.865  1.00 20.00     0.362 C 
HETATM   16  C3  B3U X   1      -3.132  -2.369   0.594  1.00 20.00     0.130 C 
HETATM   17  O2  B3U X   1      -5.120  -0.574  -0.234  1.00 20.00    -0.238 OA
HETATM   18  C4  B3U X   1      -3.268  -3.552   1.558  1.00 20.00     0.045 C 
BRANCH  15  19
HETATM   19  O1  B3U X   1      -5.591  -1.946  -1.998  1.00 20.00    -0.309 OA
HETATM   20  C1  B3U X   1      -6.641  -1.066  -2.446  1.00 20.00     0.215 C 
ENDBRANCH  15  19
ENDBRANCH   9  11
ENDBRANCH   1   7
BRANCH   6  21
HETATM   21  C11 B3U X   1       0.862  -8.221  -0.536  1.00 20.00     0.136 C 
HETATM   22  C12 B3U X   1       0.200  -8.934  -1.713  1.00 20.00     0.030 C 
HETATM   23  C13 B3U X   1       0.050 -10.422  -1.393  1.00 20.00     0.029 C 
HETATM   24  C14 B3U X   1       1.392 -11.050  -1.057  1.00 20.00     0.232 C 
HETATM   25  N5  B3U X   1       2.012 -10.325   0.095  1.00 20.00    -0.073 N 
HETATM   26  H3  B3U X   1       2.951 -10.749   0.295  1.00 20.00     0.277 HD
HETATM   27  H2  B3U X   1       1.392 -10.434   0.935  1.00 20.00     0.277 HD
HETATM   28  C15 B3U X   1       2.192  -8.870  -0.184  1.00 20.00     0.259 C 
ENDBRANCH   6  21
TORSDOF 4
