REMARK  9 active torsions:
REMARK  status: ('A' for Active; 'I' for Inactive)
REMARK    1  A    between atoms: C2_2  and  C3_3 
REMARK    2  A    between atoms: N1_7  and  C7_9 
REMARK    3  A    between atoms: C7_9  and  C10_12 
REMARK    4  A    between atoms: C10_12  and  N2_13 
REMARK       I    between atoms: N2_13  and  C11_14 
REMARK    5  A    between atoms: C11_14  and  C12_16 
REMARK       I    between atoms: C12_16  and  N3_18 
REMARK    6  A    between atoms: N3_18  and  C14_20 
REMARK    7  A    between atoms: C14_20  and  C15_21 
REMARK    8  A    between atoms: C15_21  and  C16_22 
REMARK    9  A    between atoms: C16_22  and  O3_24 
ROOT
HETATM    1  N2  BJ9 X   1      -1.905  -4.689   1.321  1.00 20.00    -0.350 N 
HETATM    2  C11 BJ9 X   1      -2.451  -3.464   1.200  1.00 20.00     0.309 C 
HETATM    3  O1  BJ9 X   1      -2.437  -2.834   0.151  1.00 20.00    -0.262 OA
HETATM    4  H23 BJ9 X   1      -1.933  -5.135   2.194  1.00 20.00     0.162 HD
ENDROOT
BRANCH   1   5
HETATM    5  C10 BJ9 X   1      -1.270  -5.377   0.196  1.00 20.00     0.161 C 
BRANCH   5   6
HETATM    6  C7  BJ9 X   1       0.180  -4.988   0.021  1.00 20.00     0.136 C 
HETATM    7  C8  BJ9 X   1       0.854  -5.829  -1.049  1.00 20.00     0.048 C 
HETATM    8  C9  BJ9 X   1       0.936  -5.061   1.336  1.00 20.00     0.048 C 
BRANCH   6   9
HETATM    9  N1  BJ9 X   1       0.211  -3.561  -0.441  1.00 20.00    -0.061 N 
HETATM   10  C6  BJ9 X   1      -0.261  -3.503  -1.859  1.00 20.00     0.236 C 
HETATM   11  C5  BJ9 X   1      -0.194  -2.071  -2.361  1.00 20.00     0.028 C 
HETATM   12  C4  BJ9 X   1       1.224  -1.509  -2.244  1.00 20.00     0.008 C 
HETATM   13  C3  BJ9 X   1       1.695  -1.606  -0.796  1.00 20.00     0.011 C 
HETATM   14  C18 BJ9 X   1       1.600  -3.036  -0.286  1.00 20.00     0.240 C 
HETATM   15  H2  BJ9 X   1      -0.435  -2.985   0.154  1.00 20.00     0.280 HD
BRANCH  13  16
HETATM   16  C2  BJ9 X   1       0.826  -0.711   0.071  1.00 20.00     0.002 C 
HETATM   17  C1  BJ9 X   1       0.951   0.738  -0.358  1.00 20.00     0.005 C 
ENDBRANCH  13  16
ENDBRANCH   6   9
ENDBRANCH   5   6
ENDBRANCH   1   5
BRANCH   2  18
HETATM   18  C12 BJ9 X   1      -3.092  -2.890   2.435  1.00 20.00     0.311 C 
HETATM   19  N3  BJ9 X   1      -3.744  -1.720   2.285  1.00 20.00    -0.348 N 
HETATM   20  C13 BJ9 X   1      -4.224  -1.197   1.009  1.00 20.00     0.153 C 
HETATM   21  O2  BJ9 X   1      -3.014  -3.473   3.514  1.00 20.00    -0.262 OA
BRANCH  19  22
HETATM   22  C14 BJ9 X   1      -4.143  -0.991   3.491  1.00 20.00     0.128 C 
BRANCH  22  23
HETATM   23  C15 BJ9 X   1      -4.892   0.269   3.117  1.00 20.00     0.051 C 
BRANCH  23  24
HETATM   24  C16 BJ9 X   1      -5.346   1.079   4.321  1.00 20.00     0.115 C 
HETATM   25  C17 BJ9 X   1      -4.169   1.546   5.160  1.00 20.00     0.039 C 
BRANCH  24  26
HETATM   26  O3  BJ9 X   1      -6.146   2.193   3.925  1.00 20.00    -0.396 OA
HETATM   27  H34 BJ9 X   1      -6.930   1.879   3.469  1.00 20.00     0.210 HD
ENDBRANCH  24  26
ENDBRANCH  23  24
ENDBRANCH  22  23
ENDBRANCH  19  22
ENDBRANCH   2  18
TORSDOF 9
