REMARK  6 active torsions:
REMARK  status: ('A' for Active; 'I' for Inactive)
REMARK    1  A    between atoms: C5_5  and  C6_6 
REMARK       I    between atoms: C6_6  and  N1_8 
REMARK    2  A    between atoms: N1_8  and  C8_10 
REMARK    3  A    between atoms: C8_10  and  C9_11 
REMARK    4  A    between atoms: C9_11  and  N2_13 
REMARK    5  A    between atoms: N2_13  and  C11_16 
REMARK    6  A    between atoms: C11_16  and  C12_17 
ROOT
HETATM    1  C6  BZ1 X   1      -0.001  -4.253   0.020  1.00 20.00     0.259 C 
HETATM    2  O1  BZ1 X   1       0.402  -4.886  -0.954  1.00 20.00    -0.267 OA
HETATM    3  N1  BZ1 X   1      -0.432  -4.848   1.149  1.00 20.00    -0.350 N 
HETATM    4  C7  BZ1 X   1      -0.992  -4.141   2.300  1.00 20.00     0.153 C 
ENDROOT
BRANCH   3   5
HETATM    5  C8  BZ1 X   1      -0.342  -6.306   1.252  1.00 20.00     0.158 C 
BRANCH   5   6
HETATM    6  C9  BZ1 X   1      -1.656  -6.990   0.951  1.00 20.00     0.200 C 
HETATM    7  C10 BZ1 X   1      -2.075  -6.813  -0.499  1.00 20.00     0.041 C 
BRANCH   6   8
HETATM    8  N2  BZ1 X   1      -1.555  -8.467   1.227  1.00 20.00    -0.064 N 
HETATM    9  H3  BZ1 X   1      -0.920  -8.886   0.503  1.00 20.00     0.278 HD
HETATM   10  H2  BZ1 X   1      -1.129  -8.588   2.179  1.00 20.00     0.278 HD
BRANCH   8  11
HETATM   11  C11 BZ1 X   1      -2.853  -9.235   1.201  1.00 20.00     0.293 C 
BRANCH  11  12
HETATM   12  C12 BZ1 X   1      -2.699 -10.731   1.279  1.00 20.00     0.081 A 
HETATM   13  C15 BZ1 X   1      -3.263 -11.732   0.476  1.00 20.00     0.049 A 
HETATM   14  C14 BZ1 X   1      -2.795 -12.917   0.994  1.00 20.00     0.114 A 
HETATM   15  N4  BZ1 X   1      -2.002 -12.599   2.044  1.00 20.00    -0.285 N 
HETATM   16  C13 BZ1 X   1      -1.267 -13.485   2.941  1.00 20.00     0.179 C 
HETATM   17  N3  BZ1 X   1      -1.925 -11.257   2.233  1.00 20.00    -0.176 NA
ENDBRANCH  11  12
ENDBRANCH   8  11
ENDBRANCH   6   8
ENDBRANCH   5   6
ENDBRANCH   3   5
BRANCH   1  18
HETATM   18  C5  BZ1 X   1      -0.035  -2.758  -0.000  1.00 20.00     0.100 A 
HETATM   19  C16 BZ1 X   1       1.137  -2.026  -0.362  1.00 20.00     0.261 A 
HETATM   20  O2  BZ1 X   1       2.182  -2.581  -0.660  1.00 20.00    -0.267 OA
HETATM   21  N5  BZ1 X   1       1.014  -0.650  -0.352  1.00 20.00    -0.327 N 
HETATM   22  H24 BZ1 X   1       1.801  -0.116  -0.590  1.00 20.00     0.169 HD
HETATM   23  C2  BZ1 X   1      -0.131   0.011  -0.032  1.00 20.00     0.008 A 
HETATM   24  C1  BZ1 X   1      -0.161   1.510  -0.058  1.00 20.00     0.068 C 
HETATM   25  C3  BZ1 X   1      -1.245  -0.680   0.309  1.00 20.00     0.026 A 
HETATM   26  C4  BZ1 X   1      -1.195  -2.096   0.329  1.00 20.00     0.025 A 
ENDBRANCH   1  18
TORSDOF 6
