REMARK  5 active torsions:
REMARK  status: ('A' for Active; 'I' for Inactive)
REMARK    1  A    between atoms: O1_2  and  C2_3 
REMARK    2  A    between atoms: C7_8  and  C8_9 
REMARK    3  A    between atoms: C8_9  and  N1_12 
REMARK    4  A    between atoms: N1_12  and  C11_15 
REMARK    5  A    between atoms: C11_15  and  C12_16 
ROOT
HETATM    1  C8  CPT X   1       2.852  -3.430   0.386  1.00 20.00     0.148 C 
HETATM    2  C9  CPT X   1       2.648  -3.271   1.891  1.00 20.00     0.051 C 
HETATM    3  C10 CPT X   1       2.000  -2.458  -0.411  1.00 20.00     0.051 C 
ENDROOT
BRANCH   1   4
HETATM    4  C7  CPT X   1       4.371  -3.469   0.087  1.00 20.00     0.010 A 
HETATM    5  C6  CPT X   1       5.274  -3.747   1.096  1.00 20.00     0.012 A 
HETATM    6  C5  CPT X   1       6.623  -3.874   0.803  1.00 20.00     0.001 A 
HETATM    7  C4  CPT X   1       7.065  -3.717  -0.497  1.00 20.00     0.003 A 
HETATM    8  C3  CPT X   1       6.160  -3.438  -1.508  1.00 20.00     0.037 A 
HETATM    9  C2  CPT X   1       4.815  -3.312  -1.216  1.00 20.00     0.076 A 
BRANCH   9  10
HETATM   10  O1  CPT X   1       3.831  -3.034  -2.126  1.00 20.00    -0.355 OA
HETATM   11  C1  CPT X   1       4.223  -2.922  -3.503  1.00 20.00     0.210 C 
ENDBRANCH   9  10
ENDBRANCH   1   4
BRANCH   1  12
HETATM   12  N1  CPT X   1       2.386  -4.814   0.060  1.00 20.00    -0.059 N 
HETATM   13  H2  CPT X   1       2.739  -5.054  -0.899  1.00 20.00     0.278 HD
HETATM   14  H1  CPT X   1       2.809  -5.469   0.764  1.00 20.00     0.278 HD
BRANCH  12  15
HETATM   15  C11 CPT X   1       0.906  -5.027   0.070  1.00 20.00     0.272 C 
BRANCH  15  16
HETATM   16  C12 CPT X   1       0.574  -6.503   0.012  1.00 20.00    -0.024 A 
HETATM   17  C13 CPT X   1       0.656  -7.243   1.175  1.00 20.00     0.028 A 
HETATM   18  C14 CPT X   1       0.353  -8.592   1.129  1.00 20.00     0.117 A 
HETATM   19  N2  CPT X   1      -0.013  -9.224   0.005  1.00 20.00    -0.273 NA
HETATM   20  C15 CPT X   1      -0.088  -8.493  -1.112  1.00 20.00     0.123 A 
HETATM   21  C16 CPT X   1       0.192  -7.140  -1.154  1.00 20.00    -0.036 A 
HETATM   22  C17 CPT X   1       0.167  -6.431  -2.488  1.00 20.00     0.050 C 
ENDBRANCH  15  16
ENDBRANCH  12  15
ENDBRANCH   1  12
TORSDOF 5
