REMARK  7 active torsions:
REMARK  status: ('A' for Active; 'I' for Inactive)
REMARK    1  A    between atoms: C3_3  and  C4_4 
REMARK    2  A    between atoms: C4_4  and  O2_6 
REMARK    3  A    between atoms: O2_6  and  C5_7 
REMARK    4  A    between atoms: C5_7  and  C6_8 
REMARK    5  A    between atoms: C6_8  and  C7_9 
REMARK    6  A    between atoms: C7_9  and  N1_10 
REMARK    7  A    between atoms: C13_18  and  C14_19 
ROOT
HETATM    1  C4  CWK X   1       2.565   2.650  -6.174  1.00 20.00     0.319 C 
HETATM    2  O1  CWK X   1       1.907   2.925  -5.205  1.00 20.00    -0.257 OA
ENDROOT
BRANCH   1   3
HETATM    3  O2  CWK X   1       2.379   1.530  -6.912  1.00 20.00    -0.316 OA
BRANCH   3   4
HETATM    4  C5  CWK X   1       1.299   0.647  -6.515  1.00 20.00     0.180 C 
BRANCH   4   5
HETATM    5  C6  CWK X   1       1.247  -0.567  -7.422  1.00 20.00     0.054 C 
BRANCH   5   6
HETATM    6  C7  CWK X   1      -0.019  -1.391  -7.253  1.00 20.00     0.237 C 
BRANCH   6   7
HETATM    7  N1  CWK X   1      -0.005  -2.543  -8.213  1.00 20.00    -0.071 N 
HETATM    8  C12 CWK X   1      -1.247  -3.313  -8.068  1.00 20.00     0.235 C 
HETATM    9  C11 CWK X   1      -1.202  -4.537  -8.986  1.00 20.00     0.028 C 
HETATM   10  C10 CWK X   1      -1.056  -4.072 -10.438  1.00 20.00     0.003 C 
HETATM   11  C9  CWK X   1       0.202  -3.207 -10.563  1.00 20.00     0.028 C 
HETATM   12  C8  CWK X   1       0.106  -2.034  -9.585  1.00 20.00     0.235 C 
HETATM   13  H1  CWK X   1       0.816  -3.163  -8.004  1.00 20.00     0.279 HD
ENDBRANCH   6   7
ENDBRANCH   5   6
ENDBRANCH   4   5
ENDBRANCH   3   4
ENDBRANCH   1   3
BRANCH   1  14
HETATM   14  C3  CWK X   1       3.669   3.485  -6.705  1.00 20.00     0.176 A 
HETATM   15  O3  CWK X   1       3.919   4.689  -6.077  1.00 20.00    -0.287 OA
HETATM   16  C13 CWK X   1       4.962   5.229  -6.762  1.00 20.00     0.150 A 
HETATM   17  N2  CWK X   1       5.378   4.481  -7.746  1.00 20.00    -0.230 NA
HETATM   18  C2  CWK X   1       4.557   3.368  -7.714  1.00 20.00     0.073 A 
HETATM   19  C1  CWK X   1       4.747   2.270  -8.721  1.00 20.00     0.074 C 
BRANCH  16  20
HETATM   20  C14 CWK X   1       5.431   6.579  -6.252  1.00 20.00     0.055 C 
HETATM   21  C16 CWK X   1       4.310   7.625  -6.307  1.00 20.00     0.018 C 
HETATM   22  C15 CWK X   1       6.662   7.072  -7.024  1.00 20.00     0.018 C 
ENDBRANCH  16  20
ENDBRANCH   1  14
TORSDOF 7
