REMARK  7 active torsions:
REMARK  status: ('A' for Active; 'I' for Inactive)
REMARK    1  A    between atoms: C2_2  and  C3_3 
REMARK    2  A    between atoms: C3_3  and  N1_4 
REMARK    3  A    between atoms: N1_4  and  C4_5 
REMARK       I    between atoms: N1_4  and  C8_11 
REMARK    4  A    between atoms: C4_5  and  C5_6 
REMARK    5  A    between atoms: C5_6  and  N2_7 
REMARK    6  A    between atoms: C8_11  and  C9_13 
REMARK    7  A    between atoms: C9_13  and  C10_14 
ROOT
HETATM    1  N1  CZ0 X   1       1.386  -0.232   0.980  1.00 20.00    -0.350 N 
HETATM    2  C8  CZ0 X   1       2.636  -0.736   0.917  1.00 20.00     0.225 C 
HETATM    3  O1  CZ0 X   1       3.554  -0.241   1.570  1.00 20.00    -0.273 OA
ENDROOT
BRANCH   2   4
HETATM    4  C9  CZ0 X   1       2.879  -1.932   0.018  1.00 20.00     0.165 C 
BRANCH   4   5
HETATM    5  C10 CZ0 X   1       3.946  -2.878   0.507  1.00 20.00     0.084 A 
HETATM    6  C16 CZ0 X   1       5.071  -3.355  -0.234  1.00 20.00     0.030 A 
HETATM    7  C15 CZ0 X   1       5.580  -3.140  -1.523  1.00 20.00     0.058 A 
HETATM    8  C11 CZ0 X   1       5.704  -4.192   0.654  1.00 20.00     0.113 A 
HETATM    9  C14 CZ0 X   1       6.724  -3.856  -1.870  1.00 20.00     0.117 A 
HETATM   10  F1  CZ0 X   1       7.277  -3.768  -3.096  1.00 20.00    -0.206 F 
HETATM   11  C13 CZ0 X   1       7.331  -4.696  -0.930  1.00 20.00     0.045 A 
HETATM   12  C12 CZ0 X   1       6.867  -4.890   0.330  1.00 20.00     0.043 A 
HETATM   13  O2  CZ0 X   1       5.046  -4.214   1.836  1.00 20.00    -0.212 OA
HETATM   14  N3  CZ0 X   1       3.901  -3.348   1.718  1.00 20.00    -0.131 NA
ENDBRANCH   4   5
ENDBRANCH   2   4
BRANCH   1  15
HETATM   15  C3  CZ0 X   1       1.096   0.967   1.768  1.00 20.00     0.125 C 
BRANCH  15  16
HETATM   16  C2  CZ0 X   1       1.060   2.257   0.969  1.00 20.00     0.015 C 
HETATM   17  C1  CZ0 X   1       0.681   3.431   1.858  1.00 20.00     0.006 C 
ENDBRANCH  15  16
ENDBRANCH   1  15
BRANCH   1  18
HETATM   18  C4  CZ0 X   1       0.268  -0.906   0.335  1.00 20.00     0.153 C 
BRANCH  18  19
HETATM   19  C5  CZ0 X   1      -0.221  -2.098   1.121  1.00 20.00     0.253 C 
BRANCH  19  20
HETATM   20  N2  CZ0 X   1      -0.596  -1.729   2.526  1.00 20.00    -0.077 N 
HETATM   21  H1  CZ0 X   1       0.246  -1.266   2.948  1.00 20.00     0.279 HD
HETATM   22  C7  CZ0 X   1      -0.873  -2.949   3.353  1.00 20.00     0.269 C 
HETATM   23  C6  CZ0 X   1      -1.716  -0.733   2.603  1.00 20.00     0.269 C 
ENDBRANCH  19  20
ENDBRANCH  18  19
ENDBRANCH   1  18
TORSDOF 7
