REMARK  6 active torsions:
REMARK  status: ('A' for Active; 'I' for Inactive)
REMARK    1  A    between atoms: C2_2  and  C3_3 
REMARK    2  A    between atoms: C3_3  and  N1_4 
REMARK    3  A    between atoms: C5_7  and  O1_8 
REMARK    4  A    between atoms: C6_9  and  C7_10 
REMARK    5  A    between atoms: C7_10  and  N2_11 
REMARK       I    between atoms: N2_11  and  C8_12 
REMARK    6  A    between atoms: C8_12  and  C9_14 
ROOT
HETATM    1  N2  D8X X   1       0.413  -6.025  -3.905  1.00 20.00    -0.355 N 
HETATM    2  C8  D8X X   1       0.672  -6.382  -5.178  1.00 20.00     0.275 C 
HETATM    3  O2  D8X X   1       1.228  -5.639  -5.971  1.00 20.00    -0.265 OA
HETATM    4  H16 D8X X   1       0.028  -6.689  -3.297  1.00 20.00     0.162 HD
ENDROOT
BRANCH   1   5
HETATM    5  C7  D8X X   1       0.689  -4.679  -3.399  1.00 20.00     0.132 C 
BRANCH   5   6
HETATM    6  C6  D8X X   1      -0.514  -3.756  -3.512  1.00 20.00     0.060 C 
HETATM    7  C16 D8X X   1      -1.637  -4.239  -2.619  1.00 20.00     0.243 C 
HETATM    8  N1  D8X X   1      -2.282  -2.980  -2.080  1.00 20.00    -0.068 N 
HETATM    9  H1  D8X X   1      -2.939  -2.561  -2.784  1.00 20.00     0.280 HD
HETATM   10  C4  D8X X   1      -1.097  -2.077  -1.837  1.00 20.00     0.267 C 
HETATM   11  C5  D8X X   1      -0.163  -2.350  -3.001  1.00 20.00     0.151 C 
BRANCH   8  12
HETATM   12  C3  D8X X   1      -3.022  -3.255  -0.808  1.00 20.00     0.234 C 
BRANCH  12  13
HETATM   13  C2  D8X X   1      -3.762  -2.070  -0.210  1.00 20.00     0.023 C 
HETATM   14  C1  D8X X   1      -4.553  -2.423   1.040  1.00 20.00     0.007 C 
ENDBRANCH  12  13
ENDBRANCH   8  12
BRANCH  11  15
HETATM   15  O1  D8X X   1      -0.363  -1.384  -4.033  1.00 20.00    -0.393 OA
HETATM   16  H13 D8X X   1       0.398  -1.378  -4.619  1.00 20.00     0.210 HD
ENDBRANCH  11  15
ENDBRANCH   5   6
ENDBRANCH   1   5
BRANCH   2  17
HETATM   17  C9  D8X X   1       0.253  -7.718  -5.576  1.00 20.00     0.149 A 
HETATM   18  O4  D8X X   1      -0.310  -8.456  -4.590  1.00 20.00    -0.316 OA
HETATM   19  C15 D8X X   1      -0.663  -9.658  -5.076  1.00 20.00     0.152 A 
HETATM   20  C14 D8X X   1      -0.327  -9.709  -6.371  1.00 20.00    -0.003 A 
HETATM   21  C13 D8X X   1      -0.495 -10.817  -7.380  1.00 20.00     0.208 C 
HETATM   22  C10 D8X X   1       0.263  -8.469  -6.699  1.00 20.00    -0.006 A 
HETATM   23  O3  D8X X   1      -0.305 -10.249  -8.685  1.00 20.00    -0.386 OA
HETATM   24  C12 D8X X   1       0.896  -9.491  -8.839  1.00 20.00     0.172 C 
HETATM   25  C11 D8X X   1       0.776  -8.159  -8.082  1.00 20.00     0.068 C 
ENDBRANCH   2  17
TORSDOF 6
