REMARK  7 active torsions:
REMARK  status: ('A' for Active; 'I' for Inactive)
REMARK    1  A    between atoms: C2_2  and  C3_3 
REMARK    2  A    between atoms: C3_3  and  N3_14 
REMARK    3  A    between atoms: C3_3  and  C4_4 
REMARK    4  A    between atoms: C4_4  and  N1_5 
REMARK       I    between atoms: N1_5  and  C5_6 
REMARK    5  A    between atoms: C5_6  and  C6_8 
REMARK       I    between atoms: N3_14  and  C10_15 
REMARK    6  A    between atoms: C10_15  and  C11_17 
REMARK    7  A    between atoms: C11_17  and  N4_18 
ROOT
HETATM    1  C3  DDO X   1      -2.843  -1.070   5.496  1.00 20.00     0.102 C 
ENDROOT
BRANCH   1   2
HETATM    2  C2  DDO X   1      -3.757  -2.284   5.487  1.00 20.00     0.022 C 
HETATM    3  C1  DDO X   1      -5.190  -1.877   5.185  1.00 20.00     0.007 C 
ENDBRANCH   1   2
BRANCH   1   4
HETATM    4  N3  DDO X   1      -2.859  -0.376   4.217  1.00 20.00    -0.353 N 
HETATM    5  C10 DDO X   1      -3.357   0.857   4.081  1.00 20.00     0.236 C 
HETATM    6  O3  DDO X   1      -3.819   1.493   5.013  1.00 20.00    -0.272 OA
HETATM    7  H15 DDO X   1      -2.493  -0.828   3.429  1.00 20.00     0.163 HD
BRANCH   5   8
HETATM    8  C11 DDO X   1      -3.314   1.430   2.685  1.00 20.00     0.232 C 
BRANCH   8   9
HETATM    9  N4  DDO X   1      -3.877   2.796   2.579  1.00 20.00    -0.337 N 
HETATM   10  C14 DDO X   1      -5.110   3.116   2.060  1.00 20.00     0.024 A 
HETATM   11  C15 DDO X   1      -6.133   2.180   1.515  1.00 20.00     0.070 C 
HETATM   12  C13 DDO X   1      -5.236   4.454   2.134  1.00 20.00     0.113 A 
HETATM   13  N5  DDO X   1      -4.076   4.939   2.703  1.00 20.00    -0.360 N 
HETATM   14  C12 DDO X   1      -3.273   3.912   2.967  1.00 20.00     0.183 A 
HETATM   15  H2  DDO X   1      -3.877   5.882   2.883  1.00 20.00     0.166 HD
ENDBRANCH   8   9
ENDBRANCH   5   8
ENDBRANCH   1   4
BRANCH   1  16
HETATM   16  C4  DDO X   1      -1.427  -1.411   5.930  1.00 20.00     0.148 C 
BRANCH  16  17
HETATM   17  N1  DDO X   1      -0.549  -0.239   5.955  1.00 20.00    -0.354 N 
HETATM   18  C5  DDO X   1       0.733  -0.309   6.362  1.00 20.00     0.272 C 
HETATM   19  O1  DDO X   1       1.245  -1.344   6.755  1.00 20.00    -0.266 OA
HETATM   20  H10 DDO X   1      -0.907   0.625   5.665  1.00 20.00     0.162 HD
BRANCH  18  21
HETATM   21  C6  DDO X   1       1.509   0.946   6.311  1.00 20.00     0.154 A 
HETATM   22  N2  DDO X   1       0.927   2.036   5.863  1.00 20.00    -0.123 NA
HETATM   23  O2  DDO X   1       1.913   3.044   5.929  1.00 20.00    -0.218 OA
HETATM   24  C7  DDO X   1       3.052   2.503   6.430  1.00 20.00     0.077 A 
HETATM   25  C8  DDO X   1       4.196   3.447   6.573  1.00 20.00     0.079 C 
HETATM   26  C9  DDO X   1       2.856   1.197   6.683  1.00 20.00     0.074 A 
ENDBRANCH  18  21
ENDBRANCH  16  17
ENDBRANCH   1  16
TORSDOF 7
