REMARK  7 active torsions:
REMARK  status: ('A' for Active; 'I' for Inactive)
REMARK       I    between atoms: N1_2  and  C2_3 
REMARK    1  A    between atoms: C2_3  and  C3_5 
REMARK    2  A    between atoms: N2_7  and  C5_9 
REMARK    3  A    between atoms: C5_9  and  C6_10 
REMARK    4  A    between atoms: C6_10  and  C7_11 
REMARK    5  A    between atoms: C7_11  and  C8_12 
REMARK    6  A    between atoms: C8_12  and  N3_13 
REMARK    7  A    between atoms: C14_20  and  C15_21 
ROOT
HETATM    1  C3  DFH X   1       0.569  -2.139  -1.071  1.00 20.00     0.113 C 
HETATM    2  C4  DFH X   1       1.391  -2.616   0.112  1.00 20.00     0.249 C 
HETATM    3  N2  DFH X   1       2.120  -3.836  -0.399  1.00 20.00    -0.070 N 
HETATM    4  H2  DFH X   1       1.498  -4.682  -0.385  1.00 20.00     0.279 HD
HETATM    5  C13 DFH X   1       2.475  -3.443  -1.817  1.00 20.00     0.245 C 
HETATM    6  C14 DFH X   1       1.272  -2.678  -2.327  1.00 20.00     0.062 C 
ENDROOT
BRANCH   3   7
HETATM    7  C5  DFH X   1       3.366  -4.110   0.420  1.00 20.00     0.235 C 
BRANCH   7   8
HETATM    8  C6  DFH X   1       4.332  -5.125  -0.172  1.00 20.00     0.029 C 
BRANCH   8   9
HETATM    9  C7  DFH X   1       5.500  -5.450   0.744  1.00 20.00     0.022 C 
BRANCH   9  10
HETATM   10  C8  DFH X   1       6.541  -6.348   0.097  1.00 20.00     0.130 C 
BRANCH  10  11
HETATM   11  N3  DFH X   1       7.684  -6.605   0.975  1.00 20.00    -0.344 N 
HETATM   12  C11 DFH X   1       8.895  -6.013   0.915  1.00 20.00     0.101 A 
HETATM   13  C12 DFH X   1       9.203  -4.900  -0.027  1.00 20.00     0.091 C 
HETATM   14  N4  DFH X   1       9.716  -6.462   1.846  1.00 20.00    -0.246 NA
HETATM   15  C10 DFH X   1       8.984  -7.396   2.538  1.00 20.00     0.136 A 
HETATM   16  C9  DFH X   1       7.729  -7.495   2.018  1.00 20.00     0.111 A 
ENDBRANCH  10  11
ENDBRANCH   9  10
ENDBRANCH   8   9
ENDBRANCH   7   8
ENDBRANCH   3   7
BRANCH   1  17
HETATM   17  C2  DFH X   1       0.243  -0.659  -1.063  1.00 20.00     0.223 C 
HETATM   18  O1  DFH X   1       1.101   0.184  -1.316  1.00 20.00    -0.273 OA
HETATM   19  N1  DFH X   1      -1.019  -0.344  -0.766  1.00 20.00    -0.365 N 
HETATM   20  H7  DFH X   1      -1.650  -1.082  -0.632  1.00 20.00     0.161 HD
HETATM   21  C1  DFH X   1      -1.528   1.011  -0.627  1.00 20.00     0.149 C 
ENDBRANCH   1  17
BRANCH   6  22
HETATM   22  C15 DFH X   1       1.710  -1.538  -3.216  1.00 20.00    -0.015 A 
HETATM   23  C16 DFH X   1       2.910  -0.880  -3.198  1.00 20.00     0.120 A 
HETATM   24  N5  DFH X   1       2.850   0.074  -4.147  1.00 20.00    -0.285 N 
HETATM   25  N6  DFH X   1       1.672   0.067  -4.810  1.00 20.00    -0.185 NA
HETATM   26  C17 DFH X   1       3.935   1.009  -4.429  1.00 20.00     0.179 C 
HETATM   27  C18 DFH X   1       0.977  -0.925  -4.239  1.00 20.00     0.148 A 
ENDBRANCH   6  22
TORSDOF 7
