REMARK  6 active torsions:
REMARK  status: ('A' for Active; 'I' for Inactive)
REMARK    1  A    between atoms: C2_2  and  C5_5 
REMARK    2  A    between atoms: C6_8  and  C7_9 
REMARK       I    between atoms: C7_9  and  N3_11 
REMARK    3  A    between atoms: N3_11  and  C8_12 
REMARK    4  A    between atoms: C8_12  and  C9_13 
REMARK    5  A    between atoms: N4_16  and  C12_18 
REMARK    6  A    between atoms: C12_18  and  C13_19 
ROOT
HETATM    1  C7  DIB X   1       0.398  -4.949  -5.697  1.00 20.00     0.296 C 
HETATM    2  O1  DIB X   1      -0.281  -4.133  -5.096  1.00 20.00    -0.264 OA
HETATM    3  N3  DIB X   1       1.530  -4.622  -6.327  1.00 20.00    -0.353 N 
HETATM    4  H11 DIB X   1       2.063  -5.333  -6.740  1.00 20.00     0.162 HD
ENDROOT
BRANCH   3   5
HETATM    5  C8  DIB X   1       2.000  -3.248  -6.419  1.00 20.00     0.127 C 
BRANCH   5   6
HETATM    6  C9  DIB X   1       3.321  -3.132  -7.162  1.00 20.00     0.006 C 
HETATM    7  C17 DIB X   1       3.203  -3.816  -8.527  1.00 20.00     0.034 C 
HETATM    8  C16 DIB X   1       4.558  -3.764  -9.236  1.00 20.00     0.235 C 
HETATM    9  N4  DIB X   1       5.566  -4.458  -8.425  1.00 20.00    -0.071 N 
HETATM   10  H1  DIB X   1       6.481  -4.468  -8.940  1.00 20.00     0.279 HD
HETATM   11  C11 DIB X   1       5.736  -3.765  -7.142  1.00 20.00     0.235 C 
HETATM   12  C10 DIB X   1       4.426  -3.818  -6.353  1.00 20.00     0.034 C 
BRANCH   9  13
HETATM   13  C12 DIB X   1       5.113  -5.883  -8.172  1.00 20.00     0.239 C 
BRANCH  13  14
HETATM   14  C13 DIB X   1       6.079  -6.748  -7.380  1.00 20.00     0.011 C 
HETATM   15  C14 DIB X   1       5.971  -6.820  -5.862  1.00 20.00     0.007 C 
HETATM   16  C15 DIB X   1       5.589  -8.007  -6.707  1.00 20.00     0.007 C 
ENDBRANCH  13  14
ENDBRANCH   9  13
ENDBRANCH   5   6
ENDBRANCH   3   5
BRANCH   1  17
HETATM   17  C6  DIB X   1      -0.012  -6.385  -5.763  1.00 20.00     0.261 A 
HETATM   18  O2  DIB X   1      -1.232  -6.735  -5.265  1.00 20.00    -0.269 OA
HETATM   19  C5  DIB X   1      -1.263  -8.083  -5.486  1.00 20.00     0.177 A 
HETATM   20  N1  DIB X   1      -0.188  -8.514  -6.049  1.00 20.00    -0.126 NA
HETATM   21  N2  DIB X   1       0.636  -7.392  -6.239  1.00 20.00    -0.116 NA
BRANCH  19  22
HETATM   22  C2  DIB X   1      -2.477  -8.820  -5.064  1.00 20.00     0.018 C 
HETATM   23  C1  DIB X   1      -3.727  -8.162  -5.657  1.00 20.00     0.023 C 
HETATM   24  C3  DIB X   1      -2.618  -8.833  -3.540  1.00 20.00     0.023 C 
HETATM   25  C4  DIB X   1      -2.395 -10.270  -5.554  1.00 20.00     0.023 C 
ENDBRANCH  19  22
ENDBRANCH   1  17
TORSDOF 6
