REMARK  7 active torsions:
REMARK  status: ('A' for Active; 'I' for Inactive)
REMARK    1  A    between atoms: N1_2  and  C2_4 
REMARK    2  A    between atoms: N1_2  and  C12_16 
REMARK    3  A    between atoms: C2_4  and  C3_5 
REMARK    4  A    between atoms: C3_5  and  C4_6 
REMARK    5  A    between atoms: C4_6  and  C5_7 
REMARK    6  A    between atoms: C5_7  and  C6_9 
REMARK    7  A    between atoms: C12_16  and  C13_17 
ROOT
HETATM    1  C2  DJS X   1      -1.335  -1.065  -0.066  1.00 20.00     0.234 C 
ENDROOT
BRANCH   1   2
HETATM    2  C3  DJS X   1      -2.290  -0.727  -1.184  1.00 20.00     0.035 C 
BRANCH   2   3
HETATM    3  C4  DJS X   1      -3.517  -1.618  -1.288  1.00 20.00     0.085 C 
BRANCH   3   4
HETATM    4  C5  DJS X   1      -4.360  -1.421  -2.532  1.00 20.00     0.159 C 
HETATM    5  O1  DJS X   1      -3.870  -0.778  -3.463  1.00 20.00    -0.292 OA
BRANCH   4   6
HETATM    6  C6  DJS X   1      -5.727  -1.986  -2.614  1.00 20.00     0.010 A 
HETATM    7  C7  DJS X   1      -6.520  -1.700  -3.714  1.00 20.00     0.018 A 
HETATM    8  C8  DJS X   1      -7.799  -2.218  -3.797  1.00 20.00     0.043 A 
HETATM    9  C9  DJS X   1      -8.286  -3.029  -2.784  1.00 20.00     0.116 A 
HETATM   10  F1  DJS X   1      -9.530  -3.538  -2.867  1.00 20.00    -0.206 F 
HETATM   11  C10 DJS X   1      -7.494  -3.314  -1.687  1.00 20.00     0.043 A 
HETATM   12  C11 DJS X   1      -6.212  -2.794  -1.603  1.00 20.00     0.018 A 
ENDBRANCH   4   6
ENDBRANCH   3   4
ENDBRANCH   2   3
ENDBRANCH   1   2
BRANCH   1  13
HETATM   13  N1  DJS X   1      -0.034  -0.286  -0.057  1.00 20.00    -0.074 N 
HETATM   14  H1  DJS X   1       0.499  -0.601  -0.905  1.00 20.00     0.279 HD
HETATM   15  C1  DJS X   1      -0.257   1.187  -0.227  1.00 20.00     0.269 C 
BRANCH  13  16
HETATM   16  C12 DJS X   1       0.831  -0.602   1.119  1.00 20.00     0.239 C 
BRANCH  16  17
HETATM   17  C13 DJS X   1       2.222   0.019   0.989  1.00 20.00     0.015 C 
HETATM   18  C17 DJS X   1       2.857  -0.425  -0.333  1.00 20.00     0.032 C 
HETATM   19  C16 DJS X   1       4.306   0.004  -0.395  1.00 20.00     0.168 C 
HETATM   20  O2  DJS X   1       5.045  -0.519   0.703  1.00 20.00    -0.391 OA
HETATM   21  C15 DJS X   1       4.542  -0.021   1.943  1.00 20.00     0.168 C 
HETATM   22  C14 DJS X   1       3.097  -0.439   2.163  1.00 20.00     0.032 C 
ENDBRANCH  16  17
ENDBRANCH  13  16
ENDBRANCH   1  13
TORSDOF 7
