REMARK  8 active torsions:
REMARK  status: ('A' for Active; 'I' for Inactive)
REMARK    1  A    between atoms: O1_2  and  C2_3 
REMARK    2  A    between atoms: C2_3  and  C3_5 
REMARK    3  A    between atoms: C3_5  and  C4_6 
REMARK    4  A    between atoms: C4_6  and  C5_7 
REMARK    5  A    between atoms: C5_7  and  N1_8 
REMARK    6  A    between atoms: C8_11  and  N2_12 
REMARK    7  A    between atoms: N2_12  and  C9_15 
REMARK    8  A    between atoms: C9_15  and  C11_17 
ROOT
HETATM    1  N1  E5I X   1       2.724  -4.700   3.080  1.00 20.00     0.088 N 
HETATM    2  C6  E5I X   1       3.366  -3.674   3.913  1.00 20.00     0.274 C 
HETATM    3  C7  E5I X   1       4.595  -4.271   4.602  1.00 20.00     0.063 C 
HETATM    4  C8  E5I X   1       4.162  -5.459   5.466  1.00 20.00     0.190 C 
HETATM    5  C16 E5I X   1       3.454  -6.490   4.583  1.00 20.00     0.063 C 
HETATM    6  C17 E5I X   1       2.259  -5.830   3.894  1.00 20.00     0.274 C 
ENDROOT
BRANCH   4   7
HETATM    7  N2  E5I X   1       3.231  -4.989   6.530  1.00 20.00    -0.063 N 
HETATM    8  H2  E5I X   1       2.327  -4.693   6.084  1.00 20.00     0.278 HD
HETATM    9  H1  E5I X   1       3.049  -5.780   7.197  1.00 20.00     0.278 HD
BRANCH   7  10
HETATM   10  C9  E5I X   1       3.796  -3.838   7.288  1.00 20.00     0.215 C 
HETATM   11  C10 E5I X   1       2.903  -3.535   8.493  1.00 20.00     0.045 C 
BRANCH  10  12
HETATM   12  C11 E5I X   1       5.244  -4.089   7.660  1.00 20.00    -0.022 A 
HETATM   13  C15 E5I X   1       5.589  -5.129   8.549  1.00 20.00     0.026 A 
HETATM   14  C14 E5I X   1       6.890  -5.351   8.854  1.00 20.00     0.092 A 
HETATM   15  N3  E5I X   1       7.884  -4.575   8.328  1.00 20.00    -0.334 N 
HETATM   16  C13 E5I X   1       7.603  -3.558   7.467  1.00 20.00     0.245 A 
HETATM   17  H22 E5I X   1       8.816  -4.754   8.575  1.00 20.00     0.168 HD
HETATM   18  O3  E5I X   1       8.493  -2.876   6.988  1.00 20.00    -0.268 OA
HETATM   19  C12 E5I X   1       6.241  -3.315   7.144  1.00 20.00     0.083 A 
ENDBRANCH  10  12
ENDBRANCH   7  10
ENDBRANCH   4   7
BRANCH   1  20
HETATM   20  C5  E5I X   1       1.567  -4.100   2.381  1.00 20.00     0.273 C 
BRANCH  20  21
HETATM   21  C4  E5I X   1       1.043  -4.982   1.262  1.00 20.00     0.040 C 
BRANCH  21  22
HETATM   22  C3  E5I X   1      -0.168  -4.399   0.551  1.00 20.00     0.113 C 
BRANCH  22  23
HETATM   23  C2  E5I X   1      -0.778  -5.345  -0.448  1.00 20.00     0.258 C 
HETATM   24  O2  E5I X   1      -0.274  -6.358  -0.839  1.00 20.00    -0.265 OA
BRANCH  23  25
HETATM   25  O1  E5I X   1      -1.974  -4.906  -0.852  1.00 20.00    -0.326 OA
HETATM   26  C1  E5I X   1      -2.718  -5.752  -1.742  1.00 20.00     0.213 C 
ENDBRANCH  23  25
ENDBRANCH  22  23
ENDBRANCH  21  22
ENDBRANCH  20  21
ENDBRANCH   1  20
TORSDOF 8
