REMARK  0 active torsions:
REMARK  status: ('A' for Active; 'I' for Inactive)
ROOT
HETATM    1  C1  EHW X   1      -2.923  -0.074  -0.709  1.00 20.00     0.213 C 
HETATM    2  O1  EHW X   1      -1.798  -0.969  -0.550  1.00 20.00    -0.323 OA
HETATM    3  C2  EHW X   1      -1.442  -1.622  -1.645  1.00 20.00     0.293 C 
HETATM    4  O2  EHW X   1      -2.023  -1.586  -2.699  1.00 20.00    -0.259 OA
HETATM    5  C3  EHW X   1      -0.213  -2.428  -1.432  1.00 20.00     0.041 A 
HETATM    6  C4  EHW X   1       0.351  -3.127  -2.487  1.00 20.00     0.029 A 
HETATM    7  C5  EHW X   1       1.438  -3.952  -2.267  1.00 20.00    -0.028 A 
HETATM    8  C6  EHW X   1       2.029  -4.699  -3.400  1.00 20.00    -0.048 C 
HETATM    9  C7  EHW X   1       3.084  -5.461  -3.172  1.00 20.00     0.008 C 
HETATM   10  C8  EHW X   1       3.764  -6.290  -4.218  1.00 20.00     0.262 C 
HETATM   11  N1  EHW X   1       2.970  -6.361  -5.491  1.00 20.00    -0.071 N 
HETATM   12  H1  EHW X   1       2.204  -7.069  -5.369  1.00 20.00     0.279 HD
HETATM   13  C9  EHW X   1       3.882  -6.795  -6.599  1.00 20.00     0.270 C 
HETATM   14  C10 EHW X   1       2.336  -5.021  -5.878  1.00 20.00     0.239 C 
HETATM   15  C11 EHW X   1       1.400  -4.555  -4.767  1.00 20.00     0.067 C 
HETATM   16  C12 EHW X   1       1.967  -4.076  -0.992  1.00 20.00     0.028 A 
HETATM   17  C13 EHW X   1       1.404  -3.379   0.060  1.00 20.00     0.049 A 
HETATM   18  C14 EHW X   1       1.972  -3.518   1.442  1.00 20.00     0.417 C 
HETATM   19  F1  EHW X   1       1.351  -4.472   2.136  1.00 20.00    -0.166 F 
HETATM   20  F2  EHW X   1       3.235  -3.866   1.448  1.00 20.00    -0.166 F 
HETATM   21  F3  EHW X   1       1.828  -2.437   2.173  1.00 20.00    -0.166 F 
HETATM   22  C15 EHW X   1       0.314  -2.552  -0.160  1.00 20.00     0.034 A 
ENDROOT
TORSDOF 0
