REMARK  5 active torsions:
REMARK  status: ('A' for Active; 'I' for Inactive)
REMARK    1  A    between atoms: C2_2  and  C3_3 
REMARK    2  A    between atoms: C2_2  and  N2_12 
REMARK    3  A    between atoms: C3_3  and  N1_4 
REMARK       I    between atoms: N2_12  and  C10_13 
REMARK    4  A    between atoms: C10_13  and  C11_15 
REMARK    5  A    between atoms: C14_18  and  O2_19 
ROOT
HETATM    1  N2  EMW X   1      -1.001  -1.266   1.897  1.00 20.00    -0.355 N 
HETATM    2  C10 EMW X   1       0.110  -0.630   2.280  1.00 20.00     0.226 C 
HETATM    3  O1  EMW X   1       0.629   0.261   1.627  1.00 20.00    -0.273 OA
HETATM    4  H20 EMW X   1      -1.377  -1.955   2.483  1.00 20.00     0.162 HD
ENDROOT
BRANCH   1   5
HETATM    5  C2  EMW X   1      -1.672  -0.970   0.640  1.00 20.00     0.106 C 
HETATM    6  C1  EMW X   1      -1.677  -2.166  -0.298  1.00 20.00     0.034 C 
BRANCH   5   7
HETATM    7  C3  EMW X   1      -3.091  -0.497   0.906  1.00 20.00     0.259 C 
BRANCH   7   8
HETATM    8  N1  EMW X   1      -3.223   0.658   1.854  1.00 20.00    -0.069 N 
HETATM    9  C4  EMW X   1      -4.648   1.136   1.857  1.00 20.00     0.235 C 
HETATM   10  C5  EMW X   1      -5.050   1.689   0.528  1.00 20.00     0.032 C 
HETATM   11  C6  EMW X   1      -4.120   2.780   0.020  1.00 20.00    -0.015 C 
HETATM   12  C8  EMW X   1      -2.691   2.296   0.061  1.00 20.00     0.032 C 
HETATM   13  C7  EMW X   1      -4.260   4.012   0.900  1.00 20.00     0.010 C 
HETATM   14  C9  EMW X   1      -2.312   1.749   1.425  1.00 20.00     0.235 C 
HETATM   15  H2  EMW X   1      -2.960   0.349   2.823  1.00 20.00     0.280 HD
ENDBRANCH   7   8
ENDBRANCH   5   7
ENDBRANCH   1   5
BRANCH   2  16
HETATM   16  C11 EMW X   1       0.789  -1.135   3.551  1.00 20.00     0.041 C 
HETATM   17  C18 EMW X   1       1.341  -2.542   3.329  1.00 20.00     0.022 C 
HETATM   18  C17 EMW X   1       2.008  -3.042   4.611  1.00 20.00     0.039 C 
HETATM   19  C14 EMW X   1       1.943  -1.987   5.701  1.00 20.00     0.058 C 
HETATM   20  C15 EMW X   1       0.477  -1.663   5.990  1.00 20.00     0.039 C 
HETATM   21  C13 EMW X   1       2.628  -0.717   5.210  1.00 20.00     0.039 C 
HETATM   22  C16 EMW X   1      -0.223  -1.177   4.705  1.00 20.00     0.022 C 
HETATM   23  C12 EMW X   1       1.935  -0.193   3.945  1.00 20.00     0.022 C 
BRANCH  19  24
HETATM   24  O2  EMW X   1       2.586  -2.466   6.893  1.00 20.00    -0.390 OA
HETATM   25  H25 EMW X   1       3.111  -3.242   6.685  1.00 20.00     0.210 HD
ENDBRANCH  19  24
ENDBRANCH   2  16
TORSDOF 5
