REMARK  7 active torsions:
REMARK  status: ('A' for Active; 'I' for Inactive)
REMARK    1  A    between atoms: C2_2  and  C3_3 
REMARK    2  A    between atoms: C3_3  and  C4_4 
REMARK    3  A    between atoms: C4_4  and  O1_5 
REMARK    4  A    between atoms: C4_4  and  C7_8 
REMARK    5  A    between atoms: O1_5  and  C5_6 
REMARK       I    between atoms: C7_8  and  N1_10 
REMARK    6  A    between atoms: N1_10  and  C8_11 
REMARK    7  A    between atoms: N2_15  and  C12_16 
ROOT
HETATM    1  C12 ESF X   1       5.409  -6.350   1.492  1.00 20.00     0.037 A 
HETATM    2  C13 ESF X   1       4.957  -6.534   0.195  1.00 20.00     0.031 A 
HETATM    3  C14 ESF X   1       5.142  -7.750  -0.436  1.00 20.00     0.025 A 
HETATM    4  C15 ESF X   1       5.785  -8.784   0.227  1.00 20.00     0.044 A 
HETATM    5  C16 ESF X   1       5.981 -10.040  -0.427  1.00 20.00     0.099 C 
HETATM    6  N3  ESF X   1       6.150 -11.067  -0.917  1.00 20.00    -0.191 NA
HETATM    7  C17 ESF X   1       6.236  -8.600   1.521  1.00 20.00     0.025 A 
HETATM    8  C18 ESF X   1       6.050  -7.381   2.153  1.00 20.00     0.031 A 
ENDROOT
BRANCH   1   9
HETATM    9  N2  ESF X   1       5.215  -5.107   2.139  1.00 20.00    -0.316 N 
HETATM   10  C19 ESF X   1       4.035  -4.896   2.700  1.00 20.00     0.247 C 
HETATM   11  O3  ESF X   1       3.196  -5.782   2.719  1.00 20.00    -0.271 OA
HETATM   12  C8  ESF X   1       3.734  -3.561   3.311  1.00 20.00     0.177 C 
HETATM   13  C9  ESF X   1       4.952  -2.676   3.532  1.00 20.00     0.036 C 
HETATM   14  C10 ESF X   1       5.858  -2.749   2.326  1.00 20.00     0.023 C 
HETATM   15  C11 ESF X   1       6.339  -4.165   2.131  1.00 20.00     0.132 C 
BRANCH  12  16
HETATM   16  N1  ESF X   1       2.815  -2.856   2.431  1.00 20.00    -0.346 N 
HETATM   17  C7  ESF X   1       1.591  -3.328   2.145  1.00 20.00     0.247 C 
HETATM   18  O2  ESF X   1       1.182  -4.402   2.552  1.00 20.00    -0.271 OA
HETATM   19  H15 ESF X   1       3.099  -2.007   2.032  1.00 20.00     0.163 HD
BRANCH  17  20
HETATM   20  C4  ESF X   1       0.727  -2.435   1.273  1.00 20.00     0.213 C 
BRANCH  20  21
HETATM   21  O1  ESF X   1      -0.226  -3.167   0.511  1.00 20.00    -0.377 OA
BRANCH  21  22
HETATM   22  C5  ESF X   1       0.355  -4.008  -0.477  1.00 20.00     0.164 C 
HETATM   23  C6  ESF X   1      -0.728  -4.672  -1.277  1.00 20.00     0.033 C 
ENDBRANCH  21  22
ENDBRANCH  20  21
BRANCH  20  24
HETATM   24  C3  ESF X   1      -0.044  -1.433   2.139  1.00 20.00     0.041 C 
BRANCH  24  25
HETATM   25  C2  ESF X   1      -0.805  -0.397   1.328  1.00 20.00    -0.002 C 
HETATM   26  C1  ESF X   1      -1.602   0.573   2.186  1.00 20.00     0.005 C 
ENDBRANCH  24  25
ENDBRANCH  20  24
ENDBRANCH  17  20
ENDBRANCH  12  16
ENDBRANCH   1   9
TORSDOF 7
