REMARK  8 active torsions:
REMARK  status: ('A' for Active; 'I' for Inactive)
REMARK    1  A    between atoms: C2_2  and  N1_3 
REMARK    2  A    between atoms: N1_3  and  C3_5 
REMARK    3  A    between atoms: N1_3  and  C9_16 
REMARK    4  A    between atoms: C3_5  and  C4_6 
REMARK    5  A    between atoms: C4_6  and  C5_7 
REMARK    6  A    between atoms: C5_7  and  N2_8 
REMARK       I    between atoms: N2_8  and  C6_9 
REMARK    7  A    between atoms: C6_9  and  C7_11 
REMARK    8  A    between atoms: C7_11  and  N3_12 
REMARK       I    between atoms: N3_12  and  C8_13 
REMARK       I    between atoms: C8_13  and  N4_14 
ROOT
HETATM    1  C5  FE7 X   1       2.496  -4.082   0.159  1.00 20.00     0.124 C 
ENDROOT
BRANCH   1   2
HETATM    2  N2  FE7 X   1       3.502  -4.336   1.192  1.00 20.00    -0.360 N 
HETATM    3  C6  FE7 X   1       3.302  -5.292   2.103  1.00 20.00     0.235 C 
HETATM    4  O1  FE7 X   1       2.300  -5.987   2.127  1.00 20.00    -0.272 OA
HETATM    5  H13 FE7 X   1       4.324  -3.803   1.214  1.00 20.00     0.162 HD
BRANCH   3   6
HETATM    6  C7  FE7 X   1       4.401  -5.468   3.121  1.00 20.00     0.227 C 
BRANCH   6   7
HETATM    7  N3  FE7 X   1       4.083  -6.381   4.218  1.00 20.00    -0.335 N 
HETATM    8  H16 FE7 X   1       3.179  -6.756   4.274  1.00 20.00     0.164 HD
HETATM    9  C8  FE7 X   1       5.004  -6.731   5.168  1.00 20.00     0.314 C 
HETATM   10  O2  FE7 X   1       6.184  -6.404   5.139  1.00 20.00    -0.248 OA
HETATM   11  N4  FE7 X   1       4.446  -7.497   6.164  1.00 20.00    -0.352 N 
HETATM   12  H17 FE7 X   1       3.502  -7.757   6.112  1.00 20.00     0.160 HD
HETATM   13  H18 FE7 X   1       4.991  -7.783   6.926  1.00 20.00     0.160 HD
ENDBRANCH   6   7
ENDBRANCH   3   6
ENDBRANCH   1   2
BRANCH   1  14
HETATM   14  C4  FE7 X   1       2.129  -2.613   0.051  1.00 20.00     0.047 C 
BRANCH  14  15
HETATM   15  C3  FE7 X   1       1.332  -2.107   1.230  1.00 20.00     0.237 C 
BRANCH  15  16
HETATM   16  N1  FE7 X   1       0.896  -0.657   1.153  1.00 20.00    -0.067 N 
HETATM   17  H1  FE7 X   1       1.761  -0.065   1.093  1.00 20.00     0.280 HD
BRANCH  16  18
HETATM   18  C9  FE7 X   1       0.147  -0.243   2.385  1.00 20.00     0.188 C 
HETATM   19  C10 FE7 X   1      -1.150  -1.084   2.492  1.00 20.00     0.033 C 
HETATM   20  C11 FE7 X   1      -1.839  -0.882   3.836  1.00 20.00     0.002 C 
HETATM   21  C12 FE7 X   1      -0.904  -1.113   4.961  1.00 20.00     0.000 C 
HETATM   22  C13 FE7 X   1       0.328  -0.263   4.889  1.00 20.00     0.002 C 
HETATM   23  C14 FE7 X   1       1.015  -0.436   3.560  1.00 20.00     0.033 C 
ENDBRANCH  16  18
BRANCH  16  24
HETATM   24  C2  FE7 X   1       0.083  -0.400  -0.073  1.00 20.00     0.231 C 
HETATM   25  C1  FE7 X   1      -0.296   1.051  -0.319  1.00 20.00     0.034 C 
ENDBRANCH  16  24
ENDBRANCH  15  16
ENDBRANCH  14  15
ENDBRANCH   1  14
TORSDOF 8
