REMARK  4 active torsions:
REMARK  status: ('A' for Active; 'I' for Inactive)
REMARK    1  A    between atoms: N2_7  and  C5_8 
REMARK    2  A    between atoms: C5_8  and  C6_9 
REMARK       I    between atoms: C6_9  and  N3_11 
REMARK    3  A    between atoms: N3_11  and  C7_12 
REMARK       I    between atoms: N4_15  and  C10_16 
REMARK    4  A    between atoms: C10_16  and  C11_18 
ROOT
HETATM    1  C7  FEA X   1      -2.466  -0.422   5.410  1.00 20.00     0.087 C 
HETATM    2  C8  FEA X   1      -3.686  -1.308   5.552  1.00 20.00     0.045 C 
HETATM    3  C9  FEA X   1      -4.958  -0.474   5.596  1.00 20.00     0.128 C 
HETATM    4  N4  FEA X   1      -4.876   0.503   6.673  1.00 20.00    -0.347 N 
HETATM    5  C10 FEA X   1      -5.640   0.275   7.781  1.00 20.00     0.272 C 
HETATM    6  O2  FEA X   1      -6.091  -0.905   8.040  1.00 20.00    -0.266 OA
HETATM    7  C15 FEA X   1      -3.732   1.412   6.557  1.00 20.00     0.128 C 
HETATM    8  C16 FEA X   1      -2.427   0.624   6.518  1.00 20.00     0.045 C 
ENDROOT
BRANCH   1   9
HETATM    9  N3  FEA X   1      -1.258  -1.250   5.488  1.00 20.00    -0.355 N 
HETATM   10  H9  FEA X   1      -1.060  -1.751   6.307  1.00 20.00     0.162 HD
HETATM   11  C6  FEA X   1      -0.422  -1.325   4.438  1.00 20.00     0.236 C 
HETATM   12  O1  FEA X   1      -0.655  -0.714   3.396  1.00 20.00    -0.272 OA
BRANCH  11  13
HETATM   13  C5  FEA X   1       0.815  -2.183   4.574  1.00 20.00     0.232 C 
BRANCH  13  14
HETATM   14  N2  FEA X   1       1.482  -2.326   3.280  1.00 20.00    -0.337 N 
HETATM   15  C4  FEA X   1       1.153  -3.241   2.299  1.00 20.00     0.110 A 
HETATM   16  C3  FEA X   1       2.002  -3.043   1.274  1.00 20.00     0.106 A 
HETATM   17  N1  FEA X   1       2.836  -2.009   1.632  1.00 20.00    -0.355 N 
HETATM   18  H1  FEA X   1       3.583  -1.622   1.055  1.00 20.00     0.166 HD
HETATM   19  C2  FEA X   1       2.508  -1.597   2.850  1.00 20.00     0.079 A 
HETATM   20  C1  FEA X   1       3.179  -0.503   3.606  1.00 20.00     0.089 C 
ENDBRANCH  13  14
ENDBRANCH  11  13
ENDBRANCH   1   9
BRANCH   5  21
HETATM   21  C11 FEA X   1      -5.947   1.431   8.699  1.00 20.00     0.121 A 
HETATM   22  N6  FEA X   1      -6.893   1.274   9.679  1.00 20.00    -0.340 N 
HETATM   23  C14 FEA X   1      -7.677   0.068   9.950  1.00 20.00     0.157 C 
HETATM   24  C13 FEA X   1      -6.963   2.445  10.346  1.00 20.00     0.209 A 
HETATM   25  N5  FEA X   1      -6.127   3.344   9.861  1.00 20.00    -0.253 NA
HETATM   26  C12 FEA X   1      -5.490   2.708   8.824  1.00 20.00     0.153 A 
ENDBRANCH   5  21
TORSDOF 4
