REMARK  6 active torsions:
REMARK  status: ('A' for Active; 'I' for Inactive)
REMARK    1  A    between atoms: N1_2  and  C2_5 
REMARK    2  A    between atoms: C2_5  and  C3_6 
REMARK    3  A    between atoms: C3_6  and  C5_8 
REMARK       I    between atoms: C5_8  and  N2_10 
REMARK    4  A    between atoms: N2_10  and  C6_11 
REMARK    5  A    between atoms: C6_11  and  C7_12 
REMARK    6  A    between atoms: C7_12  and  C8_13 
ROOT
HETATM    1  C7  FY7 X   1      -4.417  -6.321   0.394  1.00 20.00     0.007 C 
HETATM    2  C14 FY7 X   1      -3.723  -5.553   1.523  1.00 20.00     0.042 C 
HETATM    3  C15 FY7 X   1      -4.403  -5.890   2.852  1.00 20.00     0.168 C 
HETATM    4  O2  FY7 X   1      -5.792  -5.564   2.771  1.00 20.00    -0.391 OA
HETATM    5  C16 FY7 X   1      -6.503  -6.287   1.764  1.00 20.00     0.168 C 
HETATM    6  C17 FY7 X   1      -5.907  -5.966   0.391  1.00 20.00     0.042 C 
ENDROOT
BRANCH   1   7
HETATM    7  C6  FY7 X   1      -3.831  -5.722  -0.927  1.00 20.00     0.137 C 
BRANCH   7   8
HETATM    8  N2  FY7 X   1      -2.366  -5.919  -1.040  1.00 20.00    -0.360 N 
HETATM    9  H12 FY7 X   1      -1.992  -6.796  -1.265  1.00 20.00     0.162 HD
HETATM   10  C5  FY7 X   1      -1.556  -4.846  -0.824  1.00 20.00     0.223 C 
HETATM   11  O1  FY7 X   1      -1.976  -3.760  -0.460  1.00 20.00    -0.273 OA
BRANCH  10  12
HETATM   12  C3  FY7 X   1      -0.075  -5.080  -1.063  1.00 20.00     0.099 C 
HETATM   13  C4  FY7 X   1       0.405  -4.347  -2.305  1.00 20.00     0.021 C 
BRANCH  12  14
HETATM   14  C2  FY7 X   1       0.764  -4.679   0.148  1.00 20.00     0.245 C 
BRANCH  14  15
HETATM   15  N1  FY7 X   1       0.506  -5.471   1.415  1.00 20.00    -0.078 N 
HETATM   16  H2  FY7 X   1       0.627  -6.487   1.178  1.00 20.00     0.276 HD
HETATM   17  H1  FY7 X   1      -0.490  -5.294   1.696  1.00 20.00     0.276 HD
HETATM   18  C1  FY7 X   1       1.364  -5.186   2.610  1.00 20.00     0.267 C 
ENDBRANCH  14  15
ENDBRANCH  12  14
ENDBRANCH  10  12
ENDBRANCH   7   8
ENDBRANCH   1   7
BRANCH   1  19
HETATM   19  C8  FY7 X   1      -4.314  -7.865   0.585  1.00 20.00    -0.048 A 
HETATM   20  C9  FY7 X   1      -5.099  -8.753  -0.126  1.00 20.00     0.010 A 
HETATM   21  C10 FY7 X   1      -4.963 -10.117   0.080  1.00 20.00     0.024 A 
HETATM   22  C11 FY7 X   1      -4.045 -10.589   0.999  1.00 20.00     0.034 A 
HETATM   23 CL1  FY7 X   1      -3.880 -12.291   1.261  1.00 20.00    -0.084 Cl
HETATM   24  C12 FY7 X   1      -3.257  -9.698   1.712  1.00 20.00     0.024 A 
HETATM   25  C13 FY7 X   1      -3.393  -8.338   1.507  1.00 20.00     0.010 A 
ENDBRANCH   1  19
TORSDOF 6
