REMARK  3 active torsions:
REMARK  status: ('A' for Active; 'I' for Inactive)
REMARK    1  A    between atoms: C2_2  and  N1_3 
REMARK    2  A    between atoms: C5_7  and  N2_8 
REMARK       I    between atoms: N2_8  and  C6_9 
REMARK    3  A    between atoms: C6_9  and  C7_11 
ROOT
HETATM    1  C7  G0N X   1       3.365  -5.689   2.936  1.00 20.00     0.129 C 
HETATM    2  C8  G0N X   1       3.517  -5.177   4.366  1.00 20.00     0.142 C 
HETATM    3  N3  G0N X   1       4.808  -4.519   4.552  1.00 20.00    -0.356 N 
HETATM    4  C9  G0N X   1       5.929  -5.020   3.999  1.00 20.00     0.252 C 
HETATM    5  O2  G0N X   1       7.019  -4.546   4.278  1.00 20.00    -0.268 OA
HETATM    6  C10 G0N X   1       5.827  -6.150   3.052  1.00 20.00     0.039 A 
HETATM    7  C11 G0N X   1       6.957  -6.866   2.665  1.00 20.00     0.017 A 
HETATM    8  C12 G0N X   1       6.827  -7.926   1.790  1.00 20.00     0.001 A 
HETATM    9  C13 G0N X   1       5.581  -8.275   1.300  1.00 20.00     0.001 A 
HETATM   10  C14 G0N X   1       4.455  -7.563   1.677  1.00 20.00     0.009 A 
HETATM   11  C15 G0N X   1       4.575  -6.497   2.546  1.00 20.00    -0.028 A 
HETATM   12  H16 G0N X   1       4.859  -3.699   5.087  1.00 20.00     0.162 HD
ENDROOT
BRANCH   1  13
HETATM   13  C6  G0N X   1       3.223  -4.510   1.993  1.00 20.00     0.228 C 
HETATM   14  N2  G0N X   1       3.067  -4.815   0.704  1.00 20.00    -0.354 N 
HETATM   15  H13 G0N X   1       3.026  -5.758   0.443  1.00 20.00     0.162 HD
HETATM   16  O1  G0N X   1       3.252  -3.353   2.409  1.00 20.00    -0.273 OA
BRANCH  14  17
HETATM   17  C5  G0N X   1       2.955  -3.789  -0.334  1.00 20.00     0.112 C 
HETATM   18  C16 G0N X   1       3.365  -4.350  -1.679  1.00 20.00     0.260 C 
HETATM   19  N1  G0N X   1       2.430  -3.701  -2.678  1.00 20.00    -0.069 N 
HETATM   20  H1  G0N X   1       2.359  -4.273  -3.556  1.00 20.00     0.279 HD
HETATM   21  C3  G0N X   1       1.115  -3.677  -1.936  1.00 20.00     0.237 C 
HETATM   22  C4  G0N X   1       1.491  -3.353  -0.503  1.00 20.00     0.054 C 
BRANCH  19  23
HETATM   23  C2  G0N X   1       2.882  -2.317  -3.019  1.00 20.00     0.230 C 
HETATM   24  C1  G0N X   1       2.083  -1.613  -4.103  1.00 20.00     0.034 C 
ENDBRANCH  19  23
ENDBRANCH  14  17
ENDBRANCH   1  13
TORSDOF 3
