REMARK  5 active torsions:
REMARK  status: ('A' for Active; 'I' for Inactive)
REMARK    1  A    between atoms: C2_2  and  C3_3 
REMARK    2  A    between atoms: C3_3  and  N1_4 
REMARK    3  A    between atoms: C8_10  and  C9_11 
REMARK    4  A    between atoms: C9_11  and  N2_12 
REMARK       I    between atoms: N2_12  and  C10_13 
REMARK    5  A    between atoms: C10_13  and  C11_15 
ROOT
HETATM    1  N2  G1H X   1       2.321   0.239   3.384  1.00 20.00    -0.355 N 
HETATM    2  C10 G1H X   1       1.896   0.447   4.645  1.00 20.00     0.251 C 
HETATM    3  O1  G1H X   1       0.859  -0.034   5.081  1.00 20.00    -0.268 OA
HETATM    4  H20 G1H X   1       3.239   0.486   3.147  1.00 20.00     0.162 HD
ENDROOT
BRANCH   1   5
HETATM    5  C9  G1H X   1       1.460  -0.343   2.356  1.00 20.00     0.156 C 
BRANCH   5   6
HETATM    6  C8  G1H X   1       1.576  -1.858   2.367  1.00 20.00     0.206 C 
HETATM    7  N1  G1H X   1       0.788  -2.417   1.262  1.00 20.00    -0.065 N 
HETATM    8  C4  G1H X   1      -0.608  -1.976   1.375  1.00 20.00     0.235 C 
HETATM    9  H1  G1H X   1       0.826  -3.465   1.302  1.00 20.00     0.280 HD
HETATM   10  C5  G1H X   1      -1.217  -2.522   2.667  1.00 20.00     0.028 C 
HETATM   11  C6  G1H X   1      -0.417  -1.997   3.863  1.00 20.00     0.004 C 
HETATM   12  C7  G1H X   1       1.051  -2.399   3.698  1.00 20.00     0.035 C 
BRANCH   7  13
HETATM   13  C3  G1H X   1       1.353  -1.946  -0.038  1.00 20.00     0.235 C 
BRANCH  13  14
HETATM   14  C2  G1H X   1       0.470  -2.328  -1.214  1.00 20.00     0.023 C 
HETATM   15  C1  G1H X   1       1.072  -1.976  -2.552  1.00 20.00     0.007 C 
ENDBRANCH  13  14
ENDBRANCH   7  13
ENDBRANCH   5   6
ENDBRANCH   1   5
BRANCH   2  16
HETATM   16  C11 G1H X   1       2.758   1.300   5.502  1.00 20.00     0.033 A 
HETATM   17  C18 G1H X   1       2.333   1.650   6.774  1.00 20.00     0.023 A 
HETATM   18  C16 G1H X   1       3.166   2.373   7.607  1.00 20.00    -0.061 A 
HETATM   19  C17 G1H X   1       2.700   2.759   8.991  1.00 20.00     0.048 C 
HETATM   20  C15 G1H X   1       4.428   2.744   7.171  1.00 20.00     0.013 A 
HETATM   21  C13 G1H X   1       4.852   2.396   5.903  1.00 20.00    -0.061 A 
HETATM   22  C12 G1H X   1       4.017   1.670   5.068  1.00 20.00     0.023 A 
HETATM   23  C14 G1H X   1       6.226   2.805   5.427  1.00 20.00     0.048 C 
ENDBRANCH   2  16
TORSDOF 5
