REMARK  5 active torsions:
REMARK  status: ('A' for Active; 'I' for Inactive)
REMARK    1  A    between atoms: C5_5  and  O1_6 
REMARK    2  A    between atoms: C5_5  and  C6_7 
REMARK    3  A    between atoms: C6_7  and  N1_8 
REMARK    4  A    between atoms: N1_8  and  C7_11 
REMARK    5  A    between atoms: C7_11  and  C8_12 
ROOT
HETATM    1  N1  GKF X   1       4.585   0.841   1.161  1.00 20.00    -0.068 N 
HETATM    2  H1  GKF X   1       5.198   0.036   1.440  1.00 20.00     0.277 HD
HETATM    3  H2  GKF X   1       3.922   1.065   1.945  1.00 20.00     0.277 HD
ENDROOT
BRANCH   1   4
HETATM    4  C6  GKF X   1       3.787   0.435  -0.028  1.00 20.00     0.270 C 
BRANCH   4   5
HETATM    5  C5  GKF X   1       2.950  -0.814   0.140  1.00 20.00     0.082 C 
HETATM    6  C4  GKF X   1       2.045  -0.994  -1.093  1.00 20.00     0.040 C 
HETATM    7  C3  GKF X   1       1.044   0.162  -1.230  1.00 20.00     0.007 C 
HETATM    8  C2  GKF X   1       0.178   0.344   0.019  1.00 20.00    -0.019 C 
HETATM    9  C1  GKF X   1      -0.654   1.607  -0.131  1.00 20.00     0.010 C 
HETATM   10  C15 GKF X   1       1.072   0.465   1.301  1.00 20.00     0.007 C 
HETATM   11  C14 GKF X   1       2.070  -0.681   1.425  1.00 20.00     0.040 C 
BRANCH   5  12
HETATM   12  O1  GKF X   1       3.819  -1.963   0.270  1.00 20.00    -0.388 OA
HETATM   13  H11 GKF X   1       4.033  -2.303  -0.602  1.00 20.00     0.210 HD
ENDBRANCH   5  12
ENDBRANCH   4   5
ENDBRANCH   1   4
BRANCH   1  14
HETATM   14  C7  GKF X   1       5.456   2.038   0.919  1.00 20.00     0.272 C 
BRANCH  14  15
HETATM   15  C8  GKF X   1       6.128   2.529   2.175  1.00 20.00    -0.011 A 
HETATM   16  C13 GKF X   1       7.303   1.935   2.609  1.00 20.00     0.042 A 
HETATM   17 CL1  GKF X   1       8.000   0.635   1.705  1.00 20.00    -0.084 Cl
HETATM   18  C12 GKF X   1       7.918   2.382   3.763  1.00 20.00     0.024 A 
HETATM   19  C11 GKF X   1       7.363   3.427   4.484  1.00 20.00     0.002 A 
HETATM   20  C10 GKF X   1       6.191   4.020   4.052  1.00 20.00     0.001 A 
HETATM   21  C9  GKF X   1       5.575   3.572   2.894  1.00 20.00     0.010 A 
ENDBRANCH  14  15
ENDBRANCH   1  14
TORSDOF 5
