REMARK  7 active torsions:
REMARK  status: ('A' for Active; 'I' for Inactive)
REMARK    1  A    between atoms: C2_2  and  C3_3 
REMARK    2  A    between atoms: C3_3  and  C12_16 
REMARK    3  A    between atoms: C3_3  and  N1_5 
REMARK    4  A    between atoms: N1_5  and  C5_8 
REMARK    5  A    between atoms: C5_8  and  C6_9 
REMARK    6  A    between atoms: C6_9  and  C7_10 
REMARK    7  A    between atoms: C7_10  and  C8_11 
ROOT
HETATM    1  N1  GQI X   1       1.340   1.136   2.161  1.00 20.00    -0.060 N 
HETATM    2  H1  GQI X   1       1.584   2.138   2.359  1.00 20.00     0.278 HD
HETATM    3  H2  GQI X   1       1.118   1.024   1.141  1.00 20.00     0.278 HD
ENDROOT
BRANCH   1   4
HETATM    4  C3  GQI X   1       0.126   0.783   2.948  1.00 20.00     0.172 C 
HETATM    5  C4  GQI X   1      -0.071  -0.722   2.881  1.00 20.00     0.054 C 
BRANCH   4   6
HETATM    6  C12 GQI X   1      -1.028   1.515   2.334  1.00 20.00     0.111 A 
HETATM    7  N2  GQI X   1      -0.899   2.639   1.687  1.00 20.00    -0.248 NA
HETATM    8  C13 GQI X   1      -2.117   3.071   1.235  1.00 20.00     0.038 A 
HETATM    9  C15 GQI X   1      -3.182   2.279   1.538  1.00 20.00     0.078 A 
HETATM   10  C14 GQI X   1      -2.186   4.354   0.459  1.00 20.00     0.071 C 
HETATM   11  S1  GQI X   1      -2.647   0.918   2.435  1.00 20.00    -0.082 SA
ENDBRANCH   4   6
BRANCH   4  12
HETATM   12  C2  GQI X   1       0.328   1.273   4.384  1.00 20.00     0.041 C 
HETATM   13  C1  GQI X   1      -0.860   0.993   5.290  1.00 20.00     0.008 C 
ENDBRANCH   4  12
ENDBRANCH   1   4
BRANCH   1  14
HETATM   14  C5  GQI X   1       2.544   0.275   2.487  1.00 20.00     0.233 C 
BRANCH  14  15
HETATM   15  C6  GQI X   1       3.774   0.513   1.627  1.00 20.00     0.028 C 
BRANCH  15  16
HETATM   16  C7  GQI X   1       5.010  -0.220   2.125  1.00 20.00     0.008 C 
BRANCH  16  17
HETATM   17  C8  GQI X   1       6.258   0.081   1.312  1.00 20.00     0.011 C 
HETATM   18  C11 GQI X   1       6.522   1.573   1.237  1.00 20.00     0.172 C 
HETATM   19  O1  GQI X   1       7.293   1.902   2.384  1.00 20.00    -0.391 OA
HETATM   20  C10 GQI X   1       7.830   0.712   2.944  1.00 20.00     0.168 C 
HETATM   21  C9  GQI X   1       7.498  -0.416   2.006  1.00 20.00     0.033 C 
ENDBRANCH  16  17
ENDBRANCH  15  16
ENDBRANCH  14  15
ENDBRANCH   1  14
TORSDOF 7
