REMARK  0 active torsions:
REMARK  status: ('A' for Active; 'I' for Inactive)
ROOT
HETATM    1  C1  HA9 X   1       1.062  -0.176   0.715  1.00 20.00     0.015 C 
HETATM    2  C2  HA9 X   1      -0.383  -0.551   0.428  1.00 20.00     0.013 C 
HETATM    3  C3  HA9 X   1      -1.204  -0.519   1.707  1.00 20.00     0.015 C 
HETATM    4  C4  HA9 X   1      -0.984   0.339  -0.645  1.00 20.00    -0.028 A 
HETATM    5  C5  HA9 X   1      -1.207   1.671  -0.331  1.00 20.00     0.010 A 
HETATM    6  C6  HA9 X   1      -1.757   2.520  -1.273  1.00 20.00     0.001 A 
HETATM    7  C7  HA9 X   1      -2.080   2.041  -2.533  1.00 20.00     0.002 A 
HETATM    8  C8  HA9 X   1      -1.857   0.714  -2.846  1.00 20.00     0.029 A 
HETATM    9  C9  HA9 X   1      -1.306  -0.138  -1.901  1.00 20.00     0.035 A 
HETATM   10  N1  HA9 X   1      -1.085  -1.422  -2.206  1.00 20.00    -0.385 N 
HETATM   11  C10 HA9 X   1      -1.619  -2.146  -3.364  1.00 20.00     0.086 C 
HETATM   12  C11 HA9 X   1      -1.552  -3.666  -3.180  1.00 20.00     0.051 C 
HETATM   13  C12 HA9 X   1      -2.058  -4.351  -4.452  1.00 20.00     0.171 C 
HETATM   14  O1  HA9 X   1      -1.267  -3.929  -5.566  1.00 20.00    -0.378 OA
HETATM   15  C13 HA9 X   1      -1.302  -2.526  -5.808  1.00 20.00     0.088 C 
HETATM   16  C14 HA9 X   1      -0.450  -2.182  -7.045  1.00 20.00     0.067 C 
HETATM   17  C15 HA9 X   1      -1.506  -2.099  -8.178  1.00 20.00     0.235 C 
HETATM   18  N2  HA9 X   1      -2.679  -1.482  -7.507  1.00 20.00    -0.072 N 
HETATM   19  H2  HA9 X   1      -3.559  -1.700  -8.037  1.00 20.00     0.277 HD
HETATM   20  H3  HA9 X   1      -2.558  -0.442  -7.442  1.00 20.00     0.277 HD
HETATM   21  C16 HA9 X   1      -2.731  -2.080  -6.154  1.00 20.00     0.270 C 
HETATM   22  C17 HA9 X   1      -0.792  -1.754  -4.594  1.00 20.00     0.065 C 
HETATM   23  H15 HA9 X   1      -0.511  -1.928  -1.595  1.00 20.00     0.160 HD
ENDROOT
TORSDOF 0
