REMARK  7 active torsions:
REMARK  status: ('A' for Active; 'I' for Inactive)
REMARK    1  A    between atoms: C2_2  and  C3_3 
REMARK    2  A    between atoms: C3_3  and  N1_4 
REMARK    3  A    between atoms: C5_6  and  C6_7 
REMARK       I    between atoms: C6_7  and  N2_9 
REMARK    4  A    between atoms: N2_9  and  C7_10 
REMARK    5  A    between atoms: N3_13  and  C10_15 
REMARK    6  A    between atoms: C10_15  and  C11_16 
REMARK    7  A    between atoms: C11_16  and  C12_17 
ROOT
HETATM    1  C7  HNR X   1       0.482  -7.596  -2.740  1.00 20.00     0.088 C 
HETATM    2  C8  HNR X   1       1.254  -7.865  -4.032  1.00 20.00     0.053 C 
HETATM    3  C9  HNR X   1       1.573  -9.342  -4.184  1.00 20.00     0.237 C 
HETATM    4  N3  HNR X   1       0.306 -10.136  -4.154  1.00 20.00    -0.067 N 
HETATM    5  H2  HNR X   1       0.545 -11.156  -4.229  1.00 20.00     0.280 HD
HETATM    6  C13 HNR X   1      -0.470  -9.915  -2.899  1.00 20.00     0.186 C 
HETATM    7  C14 HNR X   1      -1.778 -10.708  -2.970  1.00 20.00     0.040 C 
HETATM    8  C15 HNR X   1      -0.791  -8.438  -2.718  1.00 20.00     0.058 C 
ENDROOT
BRANCH   1   9
HETATM    9  N2  HNR X   1       1.313  -7.944  -1.598  1.00 20.00    -0.352 N 
HETATM   10  C6  HNR X   1       1.205  -7.322  -0.420  1.00 20.00     0.254 C 
HETATM   11  O1  HNR X   1       0.480  -6.356  -0.249  1.00 20.00    -0.268 OA
HETATM   12  H12 HNR X   1       1.976  -8.660  -1.696  1.00 20.00     0.163 HD
BRANCH  10  13
HETATM   13  C5  HNR X   1       2.027  -7.871   0.702  1.00 20.00     0.068 A 
HETATM   14  C16 HNR X   1       2.941  -8.933   0.658  1.00 20.00     0.157 A 
HETATM   15  N4  HNR X   1       3.487  -9.148   1.859  1.00 20.00    -0.184 NA
HETATM   16  N1  HNR X   1       2.929  -8.213   2.669  1.00 20.00    -0.280 N 
HETATM   17  C4  HNR X   1       2.044  -7.433   2.005  1.00 20.00     0.130 A 
BRANCH  16  18
HETATM   18  C3  HNR X   1       3.325  -8.163   4.078  1.00 20.00     0.150 C 
BRANCH  18  19
HETATM   19  C2  HNR X   1       2.479  -9.072   4.954  1.00 20.00     0.017 C 
HETATM   20  C1  HNR X   1       2.842  -8.998   6.428  1.00 20.00     0.007 C 
ENDBRANCH  18  19
ENDBRANCH  16  18
ENDBRANCH  10  13
ENDBRANCH   1   9
BRANCH   4  21
HETATM   21  C10 HNR X   1      -0.552  -9.730  -5.336  1.00 20.00     0.237 C 
BRANCH  21  22
HETATM   22  C11 HNR X   1      -0.066 -10.205  -6.696  1.00 20.00     0.059 C 
BRANCH  22  23
HETATM   23  C12 HNR X   1      -0.944  -9.761  -7.831  1.00 20.00     0.223 C 
HETATM   24  F1  HNR X   1      -0.473 -10.308  -9.023  1.00 20.00    -0.255 F 
ENDBRANCH  22  23
ENDBRANCH  21  22
ENDBRANCH   4  21
TORSDOF 7
