REMARK  7 active torsions:
REMARK  status: ('A' for Active; 'I' for Inactive)
REMARK    1  A    between atoms: N1_7  and  C7_8 
REMARK    2  A    between atoms: C7_8  and  C8_9 
REMARK    3  A    between atoms: C8_9  and  N2_10 
REMARK       I    between atoms: N2_10  and  C9_11 
REMARK       I    between atoms: C9_11  and  N3_13 
REMARK    4  A    between atoms: N3_13  and  C10_14 
REMARK    5  A    between atoms: C10_14  and  C12_20 
REMARK    6  A    between atoms: C10_14  and  C11_15 
REMARK    7  A    between atoms: C11_15  and  N4_16 
ROOT
HETATM    1  N2  HV9 X   1      -0.488  -1.971   3.742  1.00 20.00    -0.341 N 
HETATM    2  C9  HV9 X   1      -1.343  -1.554   4.700  1.00 20.00     0.316 C 
HETATM    3  O1  HV9 X   1      -0.972  -0.923   5.699  1.00 20.00    -0.247 OA
HETATM    4  N3  HV9 X   1      -2.630  -1.862   4.514  1.00 20.00    -0.337 N 
HETATM    5  H21 HV9 X   1      -0.884  -2.455   2.988  1.00 20.00     0.164 HD
HETATM    6  H22 HV9 X   1      -2.885  -2.359   3.710  1.00 20.00     0.164 HD
ENDROOT
BRANCH   1   7
HETATM    7  C8  HV9 X   1       0.964  -1.782   3.702  1.00 20.00     0.154 C 
BRANCH   7   8
HETATM    8  C7  HV9 X   1       1.483  -2.452   2.454  1.00 20.00     0.292 C 
BRANCH   8   9
HETATM    9  N1  HV9 X   1       0.781  -1.996   1.231  1.00 20.00     0.090 N 
HETATM   10  C6  HV9 X   1       1.509  -2.467   0.058  1.00 20.00     0.272 C 
HETATM   11  C5  HV9 X   1       0.822  -2.017  -1.222  1.00 20.00     0.031 C 
HETATM   12  C4  HV9 X   1       0.685  -0.511  -1.254  1.00 20.00     0.012 C 
HETATM   13  C2  HV9 X   1      -0.005  -0.022  -0.001  1.00 20.00    -0.021 C 
HETATM   14  C3  HV9 X   1      -1.442  -0.516   0.001  1.00 20.00     0.016 C 
HETATM   15  C17 HV9 X   1       0.700  -0.538   1.242  1.00 20.00     0.281 C 
HETATM   16  C1  HV9 X   1       0.009   1.512   0.014  1.00 20.00     0.016 C 
ENDBRANCH   8   9
ENDBRANCH   7   8
ENDBRANCH   1   7
BRANCH   4  17
HETATM   17  C10 HV9 X   1      -3.679  -1.478   5.478  1.00 20.00     0.115 C 
BRANCH  17  18
HETATM   18  C12 HV9 X   1      -5.043  -1.483   4.808  1.00 20.00     0.010 C 
HETATM   19  C16 HV9 X   1      -5.093  -0.494   3.601  1.00 20.00     0.007 C 
HETATM   20  C15 HV9 X   1      -6.592  -0.293   3.392  1.00 20.00     0.000 C 
HETATM   21  C14 HV9 X   1      -7.186  -0.246   4.807  1.00 20.00     0.000 C 
HETATM   22  C13 HV9 X   1      -6.126  -0.883   5.724  1.00 20.00     0.007 C 
ENDBRANCH  17  18
BRANCH  17  23
HETATM   23  C11 HV9 X   1      -3.635  -2.380   6.700  1.00 20.00     0.255 C 
BRANCH  23  24
HETATM   24  N4  HV9 X   1      -3.614  -3.869   6.415  1.00 20.00    -0.077 N 
HETATM   25  H3  HV9 X   1      -4.450  -4.126   5.834  1.00 20.00     0.274 HD
HETATM   26  H4  HV9 X   1      -3.641  -4.399   7.322  1.00 20.00     0.274 HD
HETATM   27  H2  HV9 X   1      -2.736  -4.114   5.894  1.00 20.00     0.274 HD
ENDBRANCH  23  24
ENDBRANCH  17  23
ENDBRANCH   4  17
TORSDOF 7
