REMARK  3 active torsions:
REMARK  status: ('A' for Active; 'I' for Inactive)
REMARK    1  A    between atoms: C2_2  and  N1_3 
REMARK       I    between atoms: N1_3  and  C3_4 
REMARK       I    between atoms: C3_4  and  N2_6 
REMARK    2  A    between atoms: N2_6  and  C4_7 
REMARK       I    between atoms: N3_10  and  C7_11 
REMARK    3  A    between atoms: C7_11  and  C8_13 
ROOT
HETATM    1  N1  HYQ X   1      -0.890   0.822  -2.895  1.00 20.00    -0.334 N 
HETATM    2  C3  HYQ X   1      -1.651  -0.171  -2.345  1.00 20.00     0.317 C 
HETATM    3  O1  HYQ X   1      -1.363  -1.361  -2.442  1.00 20.00    -0.247 OA
HETATM    4  N2  HYQ X   1      -2.731   0.273  -1.696  1.00 20.00    -0.337 N 
HETATM    5  H7  HYQ X   1      -1.187   1.751  -2.803  1.00 20.00     0.165 HD
HETATM    6  H8  HYQ X   1      -2.889   1.239  -1.646  1.00 20.00     0.164 HD
ENDROOT
BRANCH   4   7
HETATM    7  C4  HYQ X   1      -3.681  -0.628  -1.062  1.00 20.00     0.105 C 
HETATM    8  C5  HYQ X   1      -4.851  -0.982  -2.018  1.00 20.00     0.047 C 
HETATM    9  C6  HYQ X   1      -5.999  -1.326  -1.047  1.00 20.00     0.128 C 
HETATM   10  N3  HYQ X   1      -5.694  -0.678   0.237  1.00 20.00    -0.350 N 
HETATM   11  C7  HYQ X   1      -6.467  -0.757   1.386  1.00 20.00     0.224 C 
HETATM   12  C14 HYQ X   1      -4.429   0.068   0.102  1.00 20.00     0.150 C 
HETATM   13  O2  HYQ X   1      -7.560  -1.289   1.317  1.00 20.00    -0.273 OA
BRANCH  11  14
HETATM   14  C8  HYQ X   1      -5.928  -0.182   2.674  1.00 20.00     0.078 C 
HETATM   15  C13 HYQ X   1      -6.231   1.313   2.722  1.00 20.00     0.014 C 
HETATM   16  C12 HYQ X   1      -6.083   2.039   4.067  1.00 20.00     0.001 C 
HETATM   17  C11 HYQ X   1      -6.729   1.230   5.187  1.00 20.00     0.000 C 
HETATM   18  C10 HYQ X   1      -6.447  -0.278   5.246  1.00 20.00     0.001 C 
HETATM   19  C9  HYQ X   1      -6.582  -0.903   3.861  1.00 20.00     0.014 C 
ENDBRANCH  11  14
ENDBRANCH   4   7
BRANCH   1  20
HETATM   20  C2  HYQ X   1       0.345   0.548  -3.613  1.00 20.00     0.034 C 
HETATM   21  C15 HYQ X   1       0.043  -0.328  -4.830  1.00 20.00     0.058 C 
HETATM   22  C16 HYQ X   1       1.317  -0.707  -5.565  1.00 20.00     0.234 C 
HETATM   23  N4  HYQ X   1       2.247  -1.411  -4.630  1.00 20.00    -0.075 N 
HETATM   24  C17 HYQ X   1       2.582  -0.581  -3.436  1.00 20.00     0.234 C 
HETATM   25  H3  HYQ X   1       3.135  -1.638  -5.143  1.00 20.00     0.277 HD
HETATM   26  H2  HYQ X   1       1.792  -2.300  -4.306  1.00 20.00     0.277 HD
HETATM   27  C18 HYQ X   1       1.320  -0.178  -2.689  1.00 20.00     0.058 C 
HETATM   28  C1  HYQ X   1       0.972   1.869  -4.079  1.00 20.00     0.038 C 
ENDBRANCH   1  20
TORSDOF 3
