REMARK  8 active torsions:
REMARK  status: ('A' for Active; 'I' for Inactive)
REMARK    1  A    between atoms: C2_2  and  N1_4 
REMARK    2  A    between atoms: N1_4  and  C4_5 
REMARK       I    between atoms: N1_4  and  C11_15 
REMARK    3  A    between atoms: C4_5  and  C5_6 
REMARK    4  A    between atoms: C5_6  and  N2_7 
REMARK    5  A    between atoms: N2_7  and  C7_9 
REMARK    6  A    between atoms: C11_15  and  C12_17 
REMARK    7  A    between atoms: C12_17  and  C13_18 
REMARK    8  A    between atoms: C13_18  and  C14_19 
ROOT
HETATM    1  N1  I5O X   1      -6.212  -1.095   1.941  1.00 20.00    -0.347 N 
HETATM    2  C11 I5O X   1      -4.973  -0.572   1.891  1.00 20.00     0.220 C 
HETATM    3  O1  I5O X   1      -4.204  -0.759   0.949  1.00 20.00    -0.273 OA
ENDROOT
BRANCH   1   4
HETATM    4  C4  I5O X   1      -6.644  -1.967   0.851  1.00 20.00     0.146 C 
BRANCH   4   5
HETATM    5  C5  I5O X   1      -7.264  -1.201  -0.292  1.00 20.00     0.160 C 
BRANCH   5   6
HETATM    6  N2  I5O X   1      -7.435  -2.022  -1.491  1.00 20.00    -0.217 N 
HETATM    7  C6  I5O X   1      -8.698  -2.732  -1.645  1.00 20.00     0.169 C 
BRANCH   6   8
HETATM    8  C7  I5O X   1      -6.463  -2.117  -2.416  1.00 20.00     0.723 A 
HETATM    9  N3  I5O X   1      -6.648  -3.018  -3.381  1.00 20.00    -0.075 NA
HETATM   10  C8  I5O X   1      -5.665  -3.099  -4.293  1.00 20.00     0.138 A 
HETATM   11  C9  I5O X   1      -4.537  -2.301  -4.242  1.00 20.00     0.040 A 
HETATM   12  C10 I5O X   1      -4.459  -1.406  -3.194  1.00 20.00     0.138 A 
HETATM   13  N4  I5O X   1      -5.420  -1.298  -2.265  1.00 20.00    -0.075 NA
ENDBRANCH   6   8
ENDBRANCH   5   6
ENDBRANCH   4   5
ENDBRANCH   1   4
BRANCH   1  14
HETATM   14  C2  I5O X   1      -7.225  -0.686   2.907  1.00 20.00     0.079 C 
HETATM   15  C3  I5O X   1      -7.605  -1.827   3.839  1.00 20.00     0.032 C 
HETATM   16  C1  I5O X   1      -8.434  -0.063   2.225  1.00 20.00     0.032 C 
ENDBRANCH   1  14
BRANCH   2  17
HETATM   17  C12 I5O X   1      -4.571   0.271   3.071  1.00 20.00     0.107 C 
BRANCH  17  18
HETATM   18  C13 I5O X   1      -3.126   0.757   2.994  1.00 20.00     0.047 C 
BRANCH  18  19
HETATM   19  C14 I5O X   1      -2.651   1.558   4.177  1.00 20.00    -0.058 A 
HETATM   20  C19 I5O X   1      -2.792   2.938   4.191  1.00 20.00     0.007 A 
HETATM   21  C18 I5O X   1      -2.430   3.658   5.313  1.00 20.00     0.001 A 
HETATM   22  C17 I5O X   1      -1.932   3.001   6.427  1.00 20.00     0.000 A 
HETATM   23  C16 I5O X   1      -1.791   1.626   6.413  1.00 20.00     0.001 A 
HETATM   24  C15 I5O X   1      -2.154   0.903   5.287  1.00 20.00     0.007 A 
ENDBRANCH  18  19
ENDBRANCH  17  18
ENDBRANCH   2  17
TORSDOF 8
