REMARK  7 active torsions:
REMARK  status: ('A' for Active; 'I' for Inactive)
REMARK    1  A    between atoms: N1_2  and  C2_3 
REMARK    2  A    between atoms: N1_2  and  C13_19 
REMARK    3  A    between atoms: C2_3  and  C3_4 
REMARK    4  A    between atoms: C3_4  and  C4_5 
REMARK    5  A    between atoms: C4_5  and  C5_6 
REMARK    6  A    between atoms: C5_6  and  N2_7 
REMARK    7  A    between atoms: N2_7  and  C6_10 
ROOT
HETATM    1  C5  IF9 X   1      -2.813  -1.686   3.658  1.00 20.00     0.233 C 
ENDROOT
BRANCH   1   2
HETATM    2  N2  IF9 X   1      -2.822  -2.785   4.663  1.00 20.00    -0.068 N 
HETATM    3  H1  IF9 X   1      -2.194  -2.512   5.459  1.00 20.00     0.277 HD
HETATM    4  H2  IF9 X   1      -2.453  -3.655   4.207  1.00 20.00     0.277 HD
BRANCH   2   5
HETATM    5  C6  IF9 X   1      -4.163  -3.075   5.207  1.00 20.00     0.224 C 
HETATM    6  C7  IF9 X   1      -4.814  -1.790   5.779  1.00 20.00     0.062 C 
HETATM    7  C8  IF9 X   1      -5.607  -2.339   6.993  1.00 20.00     0.171 C 
HETATM    8  O1  IF9 X   1      -4.753  -3.384   7.513  1.00 20.00    -0.376 OA
HETATM    9  C9  IF9 X   1      -4.188  -4.058   6.383  1.00 20.00     0.112 C 
HETATM   10  C10 IF9 X   1      -5.007  -5.313   6.027  1.00 20.00     0.069 C 
HETATM   11  C12 IF9 X   1      -2.780  -4.578   6.693  1.00 20.00     0.207 C 
HETATM   12  C11 IF9 X   1      -3.893  -6.325   5.651  1.00 20.00     0.170 C 
HETATM   13  O2  IF9 X   1      -2.825  -6.012   6.571  1.00 20.00    -0.388 OA
ENDBRANCH   2   5
ENDBRANCH   1   2
BRANCH   1  14
HETATM   14  C4  IF9 X   1      -1.418  -1.419   3.119  1.00 20.00     0.029 C 
BRANCH  14  15
HETATM   15  C3  IF9 X   1      -1.341  -0.187   2.227  1.00 20.00     0.021 C 
BRANCH  15  16
HETATM   16  C2  IF9 X   1       0.041  -0.143   1.586  1.00 20.00     0.122 C 
BRANCH  16  17
HETATM   17  N1  IF9 X   1       0.281   1.016   0.737  1.00 20.00    -0.385 N 
HETATM   18  C1  IF9 X   1      -0.040   0.967  -0.683  1.00 20.00     0.149 C 
BRANCH  17  19
HETATM   19  C13 IF9 X   1       0.825   2.188   1.285  1.00 20.00     0.029 A 
HETATM   20  C18 IF9 X   1       0.913   3.265   0.418  1.00 20.00     0.029 A 
HETATM   21  C17 IF9 X   1       1.439   4.465   0.858  1.00 20.00     0.002 A 
HETATM   22  C16 IF9 X   1       1.874   4.593   2.168  1.00 20.00     0.000 A 
HETATM   23  C15 IF9 X   1       1.786   3.518   3.033  1.00 20.00     0.002 A 
HETATM   24  C14 IF9 X   1       1.258   2.315   2.591  1.00 20.00     0.029 A 
ENDBRANCH  17  19
ENDBRANCH  16  17
ENDBRANCH  15  16
ENDBRANCH  14  15
ENDBRANCH   1  14
TORSDOF 7
