REMARK  8 active torsions:
REMARK  status: ('A' for Active; 'I' for Inactive)
REMARK    1  A    between atoms: C2_2  and  N1_3 
REMARK    2  A    between atoms: N1_3  and  C3_5 
REMARK    3  A    between atoms: N1_3  and  C11_19 
REMARK    4  A    between atoms: C3_5  and  C4_6 
REMARK    5  A    between atoms: C4_6  and  N2_7 
REMARK       I    between atoms: N2_7  and  C5_8 
REMARK    6  A    between atoms: C5_8  and  C6_10 
REMARK    7  A    between atoms: C6_10  and  N3_11 
REMARK    8  A    between atoms: C11_19  and  C12_20 
ROOT
HETATM    1  N2  IRK X   1      -5.369  -3.382   0.809  1.00 20.00    -0.358 N 
HETATM    2  C5  IRK X   1      -5.414  -3.434   2.157  1.00 20.00     0.235 C 
HETATM    3  O1  IRK X   1      -5.146  -2.447   2.840  1.00 20.00    -0.272 OA
HETATM    4  H11 IRK X   1      -5.542  -4.201   0.298  1.00 20.00     0.162 HD
ENDROOT
BRANCH   1   5
HETATM    5  C4  IRK X   1      -5.073  -2.146   0.084  1.00 20.00     0.150 C 
BRANCH   5   6
HETATM    6  C3  IRK X   1      -3.590  -1.868   0.109  1.00 20.00     0.254 C 
BRANCH   6   7
HETATM    7  N1  IRK X   1      -3.269  -0.943   1.232  1.00 20.00    -0.070 N 
HETATM    8  H1  IRK X   1      -3.586  -1.403   2.122  1.00 20.00     0.279 HD
BRANCH   7   9
HETATM    9  C2  IRK X   1      -3.974   0.369   1.122  1.00 20.00     0.230 C 
HETATM   10  C1  IRK X   1      -3.578   1.173  -0.092  1.00 20.00     0.034 C 
ENDBRANCH   7   9
BRANCH   7  11
HETATM   11  C11 IRK X   1      -1.772  -0.728   1.333  1.00 20.00     0.239 C 
BRANCH  11  12
HETATM   12  C12 IRK X   1      -1.310   0.151   2.484  1.00 20.00     0.011 C 
HETATM   13  C16 IRK X   1      -1.770  -0.421   3.849  1.00 20.00     0.006 C 
HETATM   14  C15 IRK X   1      -0.806   0.224   4.865  1.00 20.00     0.000 C 
HETATM   15  C14 IRK X   1       0.481   0.568   4.076  1.00 20.00     0.000 C 
HETATM   16  C13 IRK X   1       0.212   0.125   2.626  1.00 20.00     0.006 C 
ENDBRANCH  11  12
ENDBRANCH   7  11
ENDBRANCH   6   7
ENDBRANCH   5   6
ENDBRANCH   1   5
BRANCH   2  17
HETATM   17  C6  IRK X   1      -5.803  -4.741   2.803  1.00 20.00     0.230 C 
BRANCH  17  18
HETATM   18  N3  IRK X   1      -5.937  -4.691   4.259  1.00 20.00    -0.316 N 
HETATM   19  C7  IRK X   1      -4.819  -4.865   5.182  1.00 20.00     0.231 A 
HETATM   20  C8  IRK X   1      -5.521  -4.739   6.519  1.00 20.00     0.245 A 
HETATM   21  O2  IRK X   1      -5.002  -4.829   7.620  1.00 20.00    -0.271 OA
HETATM   22  N4  IRK X   1      -6.837  -4.505   6.265  1.00 20.00    -0.273 N 
HETATM   23  C10 IRK X   1      -7.102  -4.478   4.893  1.00 20.00     0.327 A 
HETATM   24  C9  IRK X   1      -7.854  -4.304   7.305  1.00 20.00     0.164 C 
HETATM   25  O3  IRK X   1      -8.189  -4.297   4.369  1.00 20.00    -0.247 OA
ENDBRANCH  17  18
ENDBRANCH   2  17
TORSDOF 8
