REMARK  7 active torsions:
REMARK  status: ('A' for Active; 'I' for Inactive)
REMARK    1  A    between atoms: C3_4  and  C4_5 
REMARK    2  A    between atoms: C4_5  and  N2_6 
REMARK    3  A    between atoms: N2_6  and  C5_9 
REMARK    4  A    between atoms: C5_9  and  C6_10 
REMARK    5  A    between atoms: C5_9  and  C12_18 
REMARK    6  A    between atoms: C6_10  and  N3_11 
REMARK       I    between atoms: N3_11  and  C7_12 
REMARK    7  A    between atoms: C7_12  and  C8_14 
ROOT
HETATM    1  C5  IVT X   1      -3.797  -4.116  -1.536  1.00 20.00     0.208 C 
ENDROOT
BRANCH   1   2
HETATM    2  N2  IVT X   1      -2.712  -3.102  -1.367  1.00 20.00    -0.064 N 
HETATM    3  H1  IVT X   1      -1.952  -3.327  -2.055  1.00 20.00     0.278 HD
HETATM    4  H2  IVT X   1      -3.117  -2.159  -1.589  1.00 20.00     0.278 HD
BRANCH   2   5
HETATM    5  C4  IVT X   1      -2.094  -3.026  -0.015  1.00 20.00     0.292 C 
BRANCH   5   6
HETATM    6  C3  IVT X   1      -0.937  -2.069  -0.009  1.00 20.00     0.073 A 
HETATM    7  C15 IVT X   1       0.377  -2.426  -0.014  1.00 20.00     0.007 A 
HETATM    8  C16 IVT X   1       1.003  -3.778  -0.027  1.00 20.00     0.058 C 
HETATM    9  S1  IVT X   1       1.354  -1.017  -0.005  1.00 20.00    -0.078 SA
HETATM   10  C2  IVT X   1      -0.079  -0.050   0.003  1.00 20.00     0.072 A 
HETATM   11  C1  IVT X   1       0.029   1.443   0.011  1.00 20.00     0.078 C 
HETATM   12  N1  IVT X   1      -1.194  -0.724   0.002  1.00 20.00    -0.248 NA
ENDBRANCH   5   6
ENDBRANCH   2   5
ENDBRANCH   1   2
BRANCH   1  13
HETATM   13  C6  IVT X   1      -4.327  -4.017  -2.958  1.00 20.00     0.155 C 
BRANCH  13  14
HETATM   14  N3  IVT X   1      -3.261  -4.068  -3.959  1.00 20.00    -0.359 N 
HETATM   15  C7  IVT X   1      -3.491  -4.629  -5.165  1.00 20.00     0.222 C 
HETATM   16  O1  IVT X   1      -4.592  -5.100  -5.447  1.00 20.00    -0.273 OA
HETATM   17  H13 IVT X   1      -2.379  -3.695  -3.754  1.00 20.00     0.162 HD
BRANCH  15  18
HETATM   18  C8  IVT X   1      -2.354  -4.662  -6.162  1.00 20.00     0.082 C 
HETATM   19  C9  IVT X   1      -2.075  -5.806  -7.091  1.00 20.00     0.019 C 
HETATM   20  C10 IVT X   1      -2.592  -4.510  -7.631  1.00 20.00    -0.005 C 
HETATM   21  C11 IVT X   1      -1.773  -3.626  -8.558  1.00 20.00     0.011 C 
ENDBRANCH  15  18
ENDBRANCH  13  14
ENDBRANCH   1  13
BRANCH   1  22
HETATM   22  C12 IVT X   1      -4.861  -3.918  -0.469  1.00 20.00     0.018 C 
HETATM   23  C13 IVT X   1      -5.689  -5.001   0.157  1.00 20.00     0.007 C 
HETATM   24  C14 IVT X   1      -4.784  -4.164   1.005  1.00 20.00     0.007 C 
ENDBRANCH   1  22
TORSDOF 7
