REMARK  7 active torsions:
REMARK  status: ('A' for Active; 'I' for Inactive)
REMARK    1  A    between atoms: C2_2  and  C3_3 
REMARK    2  A    between atoms: C3_3  and  C4_5 
REMARK       I    between atoms: C4_5  and  N1_7 
REMARK    3  A    between atoms: C7_10  and  C8_11 
REMARK    4  A    between atoms: C8_11  and  N2_12 
REMARK    5  A    between atoms: N2_12  and  C11_16 
REMARK    6  A    between atoms: N2_12  and  C9_14 
REMARK    7  A    between atoms: C11_16  and  C12_17 
ROOT
HETATM    1  C4  J68 X   1       0.510  -2.720   0.741  1.00 20.00     0.253 C 
HETATM    2  O1  J68 X   1       0.535  -3.534  -0.163  1.00 20.00    -0.270 OA
HETATM    3  N1  J68 X   1       0.116  -3.096   1.981  1.00 20.00    -0.350 N 
HETATM    4  C5  J68 X   1      -0.232  -2.090   2.993  1.00 20.00     0.126 C 
HETATM    5  C6  J68 X   1      -1.626  -2.406   3.543  1.00 20.00     0.026 C 
HETATM    6  C7  J68 X   1      -1.654  -3.848   4.055  1.00 20.00     0.014 C 
HETATM    7  C16 J68 X   1      -1.362  -4.807   2.899  1.00 20.00     0.026 C 
HETATM    8  C17 J68 X   1       0.029  -4.519   2.340  1.00 20.00     0.126 C 
ENDROOT
BRANCH   6   9
HETATM    9  C8  J68 X   1      -0.599  -4.022   5.135  1.00 20.00     0.239 C 
BRANCH   9  10
HETATM   10  N2  J68 X   1      -0.817  -3.232   6.384  1.00 20.00    -0.071 N 
HETATM   11  H2  J68 X   1      -0.887  -2.220   6.113  1.00 20.00     0.279 HD
BRANCH  10  12
HETATM   12  C11 J68 X   1      -2.122  -3.622   7.047  1.00 20.00     0.239 C 
BRANCH  12  13
HETATM   13  C12 J68 X   1      -2.474  -2.949   8.374  1.00 20.00     0.011 C 
HETATM   14  C15 J68 X   1      -1.818  -3.582   9.616  1.00 20.00     0.006 C 
HETATM   15  C14 J68 X   1      -3.148  -3.520  10.357  1.00 20.00     0.001 C 
HETATM   16  C13 J68 X   1      -3.849  -3.389   8.993  1.00 20.00     0.006 C 
ENDBRANCH  12  13
ENDBRANCH  10  12
BRANCH  10  17
HETATM   17  C9  J68 X   1       0.353  -3.374   7.336  1.00 20.00     0.230 C 
HETATM   18  C10 J68 X   1       1.667  -2.785   6.920  1.00 20.00     0.034 C 
ENDBRANCH  10  17
ENDBRANCH   9  10
ENDBRANCH   6   9
BRANCH   1  19
HETATM   19  C3  J68 X   1       0.895  -1.278   0.584  1.00 20.00     0.261 C 
HETATM   20  F1  J68 X   1       1.942  -0.914   1.487  1.00 20.00    -0.239 F 
BRANCH  19  21
HETATM   21  C2  J68 X   1       1.377  -1.136  -0.776  1.00 20.00     0.043 C 
HETATM   22  C1  J68 X   1       1.691   0.302  -1.157  1.00 20.00     0.008 C 
ENDBRANCH  19  21
ENDBRANCH   1  19
TORSDOF 7
