REMARK  4 active torsions:
REMARK  status: ('A' for Active; 'I' for Inactive)
REMARK    1  A    between atoms: O1_2  and  C2_3 
REMARK    2  A    between atoms: C6_7  and  O2_8 
REMARK    3  A    between atoms: C8_10  and  C9_11 
REMARK    4  A    between atoms: C13_15  and  C14_16 
ROOT
HETATM    1  C9  J9M X   1       0.222  -4.813  -1.511  1.00 20.00    -0.020 A 
HETATM    2  C10 J9M X   1       0.891  -3.822  -0.819  1.00 20.00     0.012 A 
HETATM    3  C11 J9M X   1       0.190  -2.743  -0.302  1.00 20.00     0.002 A 
HETATM    4  C12 J9M X   1      -1.179  -2.663  -0.475  1.00 20.00     0.009 A 
HETATM    5  C13 J9M X   1      -1.850  -3.658  -1.169  1.00 20.00    -0.025 A 
HETATM    6  C18 J9M X   1      -1.151  -4.733  -1.684  1.00 20.00     0.021 A 
ENDROOT
BRANCH   1   7
HETATM    7  C8  J9M X   1       0.934  -5.979  -2.084  1.00 20.00     0.041 A 
HETATM    8  C6  J9M X   1       1.004  -7.204  -1.447  1.00 20.00     0.082 A 
HETATM    9  C5  J9M X   1       1.682  -8.257  -2.041  1.00 20.00     0.038 A 
HETATM   10  C4  J9M X   1       2.292  -8.081  -3.268  1.00 20.00     0.005 A 
HETATM   11  C3  J9M X   1       2.222  -6.853  -3.908  1.00 20.00     0.038 A 
HETATM   12  C2  J9M X   1       1.546  -5.803  -3.316  1.00 20.00     0.082 A 
BRANCH   8  13
HETATM   13  O2  J9M X   1       0.382  -7.254  -0.263  1.00 20.00    -0.355 OA
HETATM   14  C7  J9M X   1       0.342  -8.485   0.535  1.00 20.00     0.210 C 
ENDBRANCH   8  13
BRANCH  12  15
HETATM   15  O1  J9M X   1       1.518  -4.611  -4.000  1.00 20.00    -0.355 OA
HETATM   16  C1  J9M X   1       1.902  -4.639  -5.384  1.00 20.00     0.210 C 
ENDBRANCH  12  15
ENDBRANCH   1   7
BRANCH   5  17
HETATM   17  C14 J9M X   1      -3.360  -3.566  -1.365  1.00 20.00     0.242 C 
HETATM   18  C15 J9M X   1      -4.019  -4.774  -0.746  1.00 20.00     0.205 C 
HETATM   19  O3  J9M X   1      -5.432  -4.741  -0.953  1.00 20.00    -0.387 OA
HETATM   20  C16 J9M X   1      -5.722  -4.753  -2.348  1.00 20.00     0.195 C 
HETATM   21  C17 J9M X   1      -5.139  -3.546  -3.044  1.00 20.00     0.259 C 
HETATM   22  N1  J9M X   1      -3.668  -3.516  -2.822  1.00 20.00    -0.063 N 
HETATM   23  H3  J9M X   1      -3.230  -4.344  -3.296  1.00 20.00     0.278 HD
HETATM   24  H2  J9M X   1      -3.275  -2.631  -3.228  1.00 20.00     0.278 HD
ENDBRANCH   5  17
TORSDOF 4
