REMARK  9 active torsions:
REMARK  status: ('A' for Active; 'I' for Inactive)
REMARK    1  A    between atoms: C2_2  and  N1_3 
REMARK    2  A    between atoms: N1_3  and  C3_5 
REMARK    3  A    between atoms: N1_3  and  C12_16 
REMARK    4  A    between atoms: C3_5  and  C4_6 
REMARK    5  A    between atoms: C4_6  and  C5_7 
REMARK    6  A    between atoms: C5_7  and  N2_8 
REMARK       I    between atoms: N2_8  and  C6_9 
REMARK    7  A    between atoms: C6_9  and  C7_11 
REMARK    8  A    between atoms: C12_16  and  C13_17 
REMARK       I    between atoms: C13_17  and  N3_19 
REMARK    9  A    between atoms: N3_19  and  C14_20 
ROOT
HETATM    1  N1  JA7 X   1       1.177  -3.424  -2.106  1.00 20.00    -0.063 N 
HETATM    2  H1  JA7 X   1       0.701  -2.579  -1.704  1.00 20.00     0.280 HD
ENDROOT
BRANCH   1   3
HETATM    3  C3  JA7 X   1       0.120  -4.424  -2.444  1.00 20.00     0.237 C 
BRANCH   3   4
HETATM    4  C4  JA7 X   1      -0.606  -4.916  -1.216  1.00 20.00     0.047 C 
BRANCH   4   5
HETATM    5  C5  JA7 X   1      -1.592  -6.034  -1.507  1.00 20.00     0.124 C 
BRANCH   5   6
HETATM    6  N2  JA7 X   1      -2.080  -6.683  -0.290  1.00 20.00    -0.361 N 
HETATM    7  C6  JA7 X   1      -2.835  -7.834  -0.374  1.00 20.00     0.222 C 
HETATM    8  O1  JA7 X   1      -3.182  -8.260  -1.463  1.00 20.00    -0.273 OA
HETATM    9  H14 JA7 X   1      -1.871  -6.299   0.587  1.00 20.00     0.162 HD
BRANCH   7  10
HETATM   10  C7  JA7 X   1      -3.179  -8.492   0.936  1.00 20.00     0.087 C 
HETATM   11  C9  JA7 X   1      -4.203  -9.562   0.986  1.00 20.00    -0.027 C 
HETATM   12  C11 JA7 X   1      -5.365  -9.983   0.165  1.00 20.00     0.011 C 
HETATM   13  C10 JA7 X   1      -5.509  -9.734   1.662  1.00 20.00     0.011 C 
HETATM   14  C8  JA7 X   1      -2.793  -9.953   1.190  1.00 20.00     0.025 C 
ENDBRANCH   7  10
ENDBRANCH   5   6
ENDBRANCH   4   5
ENDBRANCH   3   4
ENDBRANCH   1   3
BRANCH   1  15
HETATM   15  C12 JA7 X   1       1.927  -2.985  -3.329  1.00 20.00     0.337 C 
BRANCH  15  16
HETATM   16  C13 JA7 X   1       2.790  -1.776  -3.078  1.00 20.00     0.243 C 
HETATM   17  O2  JA7 X   1       2.801  -1.216  -1.982  1.00 20.00    -0.272 OA
HETATM   18  N3  JA7 X   1       3.532  -1.363  -4.117  1.00 20.00    -0.355 N 
HETATM   19  H23 JA7 X   1       3.486  -1.862  -4.959  1.00 20.00     0.162 HD
BRANCH  18  20
HETATM   20  C14 JA7 X   1       4.409  -0.191  -4.036  1.00 20.00     0.084 C 
HETATM   21  C15 JA7 X   1       4.069   0.829  -5.167  1.00 20.00     0.025 C 
HETATM   22  C16 JA7 X   1       5.430   1.485  -5.459  1.00 20.00     0.002 C 
HETATM   23  C17 JA7 X   1       6.564   0.650  -4.873  1.00 20.00     0.002 C 
HETATM   24  C18 JA7 X   1       5.869  -0.588  -4.296  1.00 20.00     0.025 C 
ENDBRANCH  18  20
ENDBRANCH  15  16
ENDBRANCH   1  15
BRANCH   1  25
HETATM   25  C2  JA7 X   1       2.115  -3.954  -1.071  1.00 20.00     0.231 C 
HETATM   26  C1  JA7 X   1       2.913  -5.171  -1.475  1.00 20.00     0.034 C 
ENDBRANCH   1  25
TORSDOF 9
