REMARK  4 active torsions:
REMARK  status: ('A' for Active; 'I' for Inactive)
REMARK       I    between atoms: N1_4  and  C4_5 
REMARK    1  A    between atoms: C4_5  and  C5_7 
REMARK    2  A    between atoms: C12_14  and  N2_15 
REMARK       I    between atoms: N2_15  and  C13_16 
REMARK    3  A    between atoms: C13_16  and  C14_18 
REMARK    4  A    between atoms: C14_18  and  S1_19 
ROOT
HETATM    1  C1  JDC X   1      -0.020   1.508   0.036  1.00 20.00     0.014 C 
HETATM    2  C2  JDC X   1      -0.008  -0.012   0.019  1.00 20.00     0.024 C 
HETATM    3  C3  JDC X   1      -1.426  -0.570   0.074  1.00 20.00     0.132 C 
HETATM    4  N1  JDC X   1      -1.219  -1.893   0.701  1.00 20.00    -0.349 N 
HETATM    5  C4  JDC X   1      -2.120  -2.901   0.644  1.00 20.00     0.224 C 
HETATM    6  O1  JDC X   1      -3.151  -2.796  -0.019  1.00 20.00    -0.273 OA
HETATM    7  C11 JDC X   1       0.078  -1.991   1.394  1.00 20.00     0.151 C 
HETATM    8  C12 JDC X   1       0.638  -0.567   1.283  1.00 20.00     0.107 C 
ENDROOT
BRANCH   8   9
HETATM    9  N2  JDC X   1       0.264   0.229   2.447  1.00 20.00    -0.354 N 
HETATM   10  H19 JDC X   1      -0.632   0.626   2.456  1.00 20.00     0.163 HD
HETATM   11  C13 JDC X   1       1.051   0.457   3.503  1.00 20.00     0.232 C 
HETATM   12  O2  JDC X   1       2.163  -0.048   3.629  1.00 20.00    -0.273 OA
BRANCH  11  13
HETATM   13  C14 JDC X   1       0.489   1.384   4.551  1.00 20.00     0.242 C 
BRANCH  13  14
HETATM   14  S1  JDC X   1       1.601   1.423   6.023  1.00 20.00     0.149 S 
HETATM   15  C15 JDC X   1       0.768   2.208   7.259  1.00 20.00     0.161 C 
HETATM   16  O3  JDC X   1       1.713   0.029   6.360  1.00 20.00    -0.228 OA
HETATM   17  O4  JDC X   1       2.747   2.148   5.546  1.00 20.00    -0.228 OA
ENDBRANCH  13  14
ENDBRANCH  11  13
ENDBRANCH   8   9
BRANCH   5  18
HETATM   18  C5  JDC X   1      -1.823  -4.164   1.420  1.00 20.00     0.079 C 
HETATM   19  C10 JDC X   1      -0.844  -5.013   0.572  1.00 20.00     0.019 C 
HETATM   20  C9  JDC X   1      -1.033  -6.451   1.105  1.00 20.00    -0.009 C 
HETATM   21  C8  JDC X   1      -2.156  -7.329   0.484  1.00 20.00     0.010 C 
HETATM   22  C7  JDC X   1      -2.432  -6.504   1.744  1.00 20.00    -0.009 C 
HETATM   23  C6  JDC X   1      -3.047  -5.100   1.575  1.00 20.00     0.019 C 
ENDBRANCH   5  18
TORSDOF 4
