REMARK  7 active torsions:
REMARK  status: ('A' for Active; 'I' for Inactive)
REMARK    1  A    between atoms: C2_2  and  C3_3 
REMARK    2  A    between atoms: C3_3  and  O1_4 
REMARK    3  A    between atoms: O1_4  and  C4_5 
REMARK    4  A    between atoms: C4_5  and  C5_6 
REMARK    5  A    between atoms: C5_6  and  C6_7 
REMARK    6  A    between atoms: C6_7  and  C7_8 
REMARK       I    between atoms: C7_8  and  N1_10 
REMARK       I    between atoms: N2_14  and  C11_15 
REMARK    7  A    between atoms: C11_15  and  C12_17 
ROOT
HETATM    1  C7  JHO X   1      -2.736  -7.357  -1.450  1.00 20.00     0.219 C 
HETATM    2  O2  JHO X   1      -1.587  -7.632  -1.794  1.00 20.00    -0.273 OA
HETATM    3  N1  JHO X   1      -3.830  -8.013  -1.926  1.00 20.00    -0.351 N 
HETATM    4  C8  JHO X   1      -5.256  -7.777  -1.584  1.00 20.00     0.132 C 
HETATM    5  C9  JHO X   1      -6.010  -7.928  -2.922  1.00 20.00     0.029 C 
HETATM    6  C10 JHO X   1      -7.279  -8.774  -2.685  1.00 20.00     0.132 C 
HETATM    7  N2  JHO X   1      -7.313  -9.730  -3.821  1.00 20.00    -0.347 N 
HETATM    8  C11 JHO X   1      -8.383 -10.143  -4.521  1.00 20.00     0.255 C 
HETATM    9  O3  JHO X   1      -8.322 -11.038  -5.357  1.00 20.00    -0.267 OA
HETATM   10  C17 JHO X   1      -5.893 -10.126  -4.006  1.00 20.00     0.132 C 
HETATM   11  C18 JHO X   1      -5.093  -8.824  -3.797  1.00 20.00     0.029 C 
HETATM   12  C19 JHO X   1      -3.871  -9.129  -2.906  1.00 20.00     0.132 C 
ENDROOT
BRANCH   1  13
HETATM   13  C6  JHO X   1      -3.014  -6.247  -0.455  1.00 20.00     0.105 C 
BRANCH  13  14
HETATM   14  C5  JHO X   1      -1.717  -5.628   0.039  1.00 20.00     0.035 C 
BRANCH  14  15
HETATM   15  C4  JHO X   1      -1.998  -4.476   0.991  1.00 20.00     0.168 C 
BRANCH  15  16
HETATM   16  O1  JHO X   1      -0.754  -3.856   1.290  1.00 20.00    -0.387 OA
BRANCH  16  17
HETATM   17  C3  JHO X   1      -0.834  -2.878   2.317  1.00 20.00     0.194 C 
BRANCH  17  18
HETATM   18  C2  JHO X   1       0.541  -2.314   2.529  1.00 20.00    -0.011 C 
HETATM   19  C1  JHO X   1       1.117  -2.244   3.709  1.00 20.00     0.009 C 
ENDBRANCH  17  18
ENDBRANCH  16  17
ENDBRANCH  15  16
ENDBRANCH  14  15
ENDBRANCH  13  14
ENDBRANCH   1  13
BRANCH   8  20
HETATM   20  C12 JHO X   1      -9.665  -9.456  -4.234  1.00 20.00     0.056 A 
HETATM   21  C16 JHO X   1     -10.602  -8.985  -5.188  1.00 20.00     0.051 A 
HETATM   22  C14 JHO X   1     -11.614  -8.434  -4.505  1.00 20.00     0.049 A 
HETATM   23  C15 JHO X   1     -12.824  -7.815  -5.114  1.00 20.00     0.076 C 
HETATM   24  O4  JHO X   1     -11.365  -8.526  -3.158  1.00 20.00    -0.326 OA
HETATM   25  C13 JHO X   1     -10.159  -9.164  -3.026  1.00 20.00     0.159 A 
ENDBRANCH   8  20
TORSDOF 7
