REMARK  4 active torsions:
REMARK  status: ('A' for Active; 'I' for Inactive)
REMARK    1  A    between atoms: C2_2  and  N1_3 
REMARK    2  A    between atoms: C2_2  and  C14_19 
REMARK    3  A    between atoms: N1_3  and  C3_6 
REMARK    4  A    between atoms: N2_10  and  C7_11 
ROOT
HETATM    1  C3  K1I X   1      -1.996  -0.018  -1.171  1.00 20.00     0.277 C 
HETATM    2  C4  K1I X   1      -3.451  -0.464  -1.007  1.00 20.00     0.044 C 
HETATM    3  C5  K1I X   1      -4.306   0.286  -2.036  1.00 20.00     0.022 C 
HETATM    4  C6  K1I X   1      -4.329   1.769  -1.665  1.00 20.00     0.126 C 
HETATM    5  N2  K1I X   1      -2.974   2.264  -1.454  1.00 20.00    -0.346 N 
HETATM    6  C13 K1I X   1      -1.924   1.481  -1.210  1.00 20.00     0.251 C 
HETATM    7  O1  K1I X   1      -0.844   2.012  -1.006  1.00 20.00    -0.271 OA
ENDROOT
BRANCH   1   8
HETATM    8  N1  K1I X   1      -1.200  -0.517  -0.033  1.00 20.00    -0.057 N 
HETATM    9  H3  K1I X   1      -1.679  -0.247   0.862  1.00 20.00     0.278 HD
HETATM   10  H2  K1I X   1      -0.247  -0.079  -0.066  1.00 20.00     0.278 HD
BRANCH   8  11
HETATM   11  C2  K1I X   1      -1.053  -2.000  -0.073  1.00 20.00     0.206 C 
HETATM   12  C1  K1I X   1      -0.411  -2.367  -1.421  1.00 20.00     0.042 C 
BRANCH  11  13
HETATM   13  C14 K1I X   1      -0.210  -2.347   1.160  1.00 20.00     0.065 C 
HETATM   14  C15 K1I X   1      -0.760  -2.699   2.506  1.00 20.00     0.029 C 
HETATM   15  C16 K1I X   1       0.020  -3.713   1.724  1.00 20.00     0.029 C 
HETATM   16 CL1  K1I X   1       1.340  -1.378   1.345  1.00 20.00    -0.117 Cl
ENDBRANCH  11  13
ENDBRANCH   8  11
ENDBRANCH   1   8
BRANCH   5  17
HETATM   17  C7  K1I X   1      -2.754   3.706  -1.516  1.00 20.00     0.087 C 
HETATM   18  C12 K1I X   1      -1.693   4.016  -2.573  1.00 20.00     0.025 C 
HETATM   19  C11 K1I X   1      -1.461   5.527  -2.637  1.00 20.00     0.002 C 
HETATM   20  C10 K1I X   1      -0.983   6.028  -1.273  1.00 20.00     0.000 C 
HETATM   21  C9  K1I X   1      -2.045   5.718  -0.215  1.00 20.00     0.002 C 
HETATM   22  C8  K1I X   1      -2.276   4.207  -0.151  1.00 20.00     0.025 C 
ENDBRANCH   5  17
TORSDOF 4
