REMARK  8 active torsions:
REMARK  status: ('A' for Active; 'I' for Inactive)
REMARK    1  A    between atoms: O1_2  and  C2_3 
REMARK    2  A    between atoms: C2_3  and  C3_4 
REMARK    3  A    between atoms: C3_4  and  C4_5 
REMARK       I    between atoms: C4_5  and  N1_7 
REMARK    4  A    between atoms: N1_7  and  C5_8 
REMARK    5  A    between atoms: C5_8  and  C6_9 
REMARK    6  A    between atoms: C6_9  and  O3_10 
REMARK    7  A    between atoms: N2_13  and  C9_15 
REMARK    8  A    between atoms: C9_15  and  C10_16 
ROOT
HETATM    1  C6  KF7 X   1      -2.941  -1.298  -2.151  1.00 20.00     0.099 C 
HETATM    2  C7  KF7 X   1      -2.932   0.213  -1.871  1.00 20.00     0.069 C 
HETATM    3  C8  KF7 X   1      -4.237   0.754  -2.423  1.00 20.00     0.238 C 
HETATM    4  N2  KF7 X   1      -4.648  -0.247  -3.477  1.00 20.00    -0.068 N 
HETATM    5  H1  KF7 X   1      -4.131  -0.084  -4.376  1.00 20.00     0.280 HD
HETATM    6  C15 KF7 X   1      -4.255  -1.569  -2.853  1.00 20.00     0.274 C 
ENDROOT
BRANCH   1   7
HETATM    7  C5  KF7 X   1      -2.863  -2.068  -0.871  1.00 20.00     0.162 C 
BRANCH   7   8
HETATM    8  N1  KF7 X   1      -2.838  -3.507  -1.086  1.00 20.00    -0.357 N 
HETATM    9  C4  KF7 X   1      -1.668  -4.143  -1.254  1.00 20.00     0.228 C 
HETATM   10  O2  KF7 X   1      -0.580  -3.570  -1.199  1.00 20.00    -0.273 OA
HETATM   11  H7  KF7 X   1      -3.677  -4.013  -1.108  1.00 20.00     0.162 HD
BRANCH   9  12
HETATM   12  C3  KF7 X   1      -1.761  -5.641  -1.522  1.00 20.00     0.062 C 
HETATM   13  C17 KF7 X   1      -2.135  -6.119  -2.890  1.00 20.00     0.023 C 
HETATM   14  C16 KF7 X   1      -0.741  -6.327  -2.376  1.00 20.00     0.023 C 
BRANCH  12  15
HETATM   15  C2  KF7 X   1      -2.297  -6.353  -0.262  1.00 20.00     0.186 C 
BRANCH  15  16
HETATM   16  O1  KF7 X   1      -1.401  -6.147   0.822  1.00 20.00    -0.395 OA
HETATM   17  C1  KF7 X   1      -1.765  -6.739   2.063  1.00 20.00     0.201 C 
ENDBRANCH  15  16
ENDBRANCH  12  15
ENDBRANCH   9  12
ENDBRANCH   7   8
ENDBRANCH   1   7
BRANCH   1  18
HETATM   18  O3  KF7 X   1      -1.781  -1.677  -3.038  1.00 20.00    -0.386 OA
HETATM   19  H10 KF7 X   1      -1.521  -0.920  -3.568  1.00 20.00     0.210 HD
ENDBRANCH   1  18
BRANCH   4  20
HETATM   20  C9  KF7 X   1      -6.141  -0.188  -3.734  1.00 20.00     0.239 C 
BRANCH  20  21
HETATM   21  C10 KF7 X   1      -6.685  -1.226  -4.724  1.00 20.00     0.011 C 
HETATM   22  C14 KF7 X   1      -5.947  -1.130  -6.082  1.00 20.00     0.006 C 
HETATM   23  C13 KF7 X   1      -6.665   0.052  -6.779  1.00 20.00     0.000 C 
HETATM   24  C12 KF7 X   1      -8.146  -0.117  -6.379  1.00 20.00     0.000 C 
HETATM   25  C11 KF7 X   1      -8.159  -0.929  -5.073  1.00 20.00     0.006 C 
ENDBRANCH  20  21
ENDBRANCH   4  20
TORSDOF 8
