REMARK  8 active torsions:
REMARK  status: ('A' for Active; 'I' for Inactive)
REMARK    1  A    between atoms: C2_2  and  C3_3 
REMARK    2  A    between atoms: C3_3  and  C4_5 
REMARK    3  A    between atoms: C4_5  and  N1_6 
REMARK    4  A    between atoms: N1_6  and  C5_9 
REMARK    5  A    between atoms: C5_9  and  C6_10 
REMARK       I    between atoms: N2_14  and  C10_15 
REMARK    6  A    between atoms: C10_15  and  C11_17 
REMARK    7  A    between atoms: C11_17  and  C12_18 
REMARK    8  A    between atoms: C12_18  and  N3_19 
ROOT
HETATM    1  C6  LMF X   1       2.048  -4.357  -3.860  1.00 20.00     0.112 C 
HETATM    2  C7  LMF X   1       1.829  -5.853  -4.171  1.00 20.00     0.028 C 
HETATM    3  C8  LMF X   1       1.714  -5.872  -5.718  1.00 20.00     0.022 C 
HETATM    4  C9  LMF X   1       0.979  -4.537  -5.993  1.00 20.00     0.126 C 
HETATM    5  N2  LMF X   1       1.532  -3.590  -5.003  1.00 20.00    -0.346 N 
HETATM    6  C10 LMF X   1       1.560  -2.250  -5.126  1.00 20.00     0.221 C 
HETATM    7  O1  LMF X   1       1.903  -1.506  -4.222  1.00 20.00    -0.273 OA
ENDROOT
BRANCH   6   8
HETATM    8  C11 LMF X   1       1.135  -1.708  -6.465  1.00 20.00     0.125 C 
BRANCH   8   9
HETATM    9  C12 LMF X   1       0.854  -0.215  -6.441  1.00 20.00     0.159 C 
BRANCH   9  10
HETATM   10  N3  LMF X   1       0.662   0.342  -7.781  1.00 20.00    -0.280 N 
HETATM   11  N4  LMF X   1       1.746   0.756  -8.486  1.00 20.00    -0.185 NA
HETATM   12  C16 LMF X   1       1.252   1.214  -9.640  1.00 20.00     0.146 A 
HETATM   13  C14 LMF X   1      -0.143   1.085  -9.679  1.00 20.00    -0.026 A 
HETATM   14  C15 LMF X   1      -1.068   1.479 -10.806  1.00 20.00     0.051 C 
HETATM   15  C13 LMF X   1      -0.488   0.523  -8.473  1.00 20.00     0.120 A 
ENDBRANCH   9  10
ENDBRANCH   8   9
ENDBRANCH   6   8
BRANCH   1  16
HETATM   16  C5  LMF X   1       1.296  -3.974  -2.595  1.00 20.00     0.257 C 
BRANCH  16  17
HETATM   17  N1  LMF X   1       1.671  -4.752  -1.349  1.00 20.00    -0.071 N 
HETATM   18  H2  LMF X   1       1.466  -5.768  -1.517  1.00 20.00     0.277 HD
HETATM   19  H3  LMF X   1       2.699  -4.626  -1.176  1.00 20.00     0.277 HD
BRANCH  17  20
HETATM   20  C4  LMF X   1       0.932  -4.317  -0.131  1.00 20.00     0.269 C 
BRANCH  20  21
HETATM   21  C3  LMF X   1       1.259  -5.079   1.143  1.00 20.00     0.195 C 
HETATM   22  F1  LMF X   1       0.904  -6.427   0.960  1.00 20.00    -0.248 F 
BRANCH  21  23
HETATM   23  C2  LMF X   1       0.518  -4.561   2.365  1.00 20.00     0.034 C 
HETATM   24  C1  LMF X   1       0.888  -5.289   3.647  1.00 20.00     0.008 C 
ENDBRANCH  21  23
ENDBRANCH  20  21
ENDBRANCH  17  20
ENDBRANCH  16  17
ENDBRANCH   1  16
TORSDOF 8
