REMARK  8 active torsions:
REMARK  status: ('A' for Active; 'I' for Inactive)
REMARK    1  A    between atoms: C2_2  and  C3_3 
REMARK    2  A    between atoms: C3_3  and  C4_4 
REMARK    3  A    between atoms: C4_4  and  C5_5 
REMARK    4  A    between atoms: C5_5  and  C6_6 
REMARK    5  A    between atoms: C6_6  and  N1_7 
REMARK    6  A    between atoms: N1_7  and  C7_10 
REMARK       I    between atoms: N2_16  and  C13_17 
REMARK    7  A    between atoms: C13_17  and  C14_19 
REMARK    8  A    between atoms: C14_19  and  C15_20 
REMARK       I    between atoms: C15_20  and  N3_21 
ROOT
HETATM    1  C7  LQK X   1       3.462  -6.579   2.962  1.00 20.00     0.188 C 
HETATM    2  C8  LQK X   1       3.749  -6.876   4.436  1.00 20.00     0.039 C 
HETATM    3  C9  LQK X   1       4.865  -5.987   4.988  1.00 20.00     0.007 C 
HETATM    4  C10 LQK X   1       6.171  -6.226   4.235  1.00 20.00     0.031 C 
HETATM    5  C11 LQK X   1       5.819  -5.684   2.852  1.00 20.00     0.089 C 
HETATM    6  C12 LQK X   1       4.721  -6.458   2.104  1.00 20.00     0.058 C 
HETATM    7  N2  LQK X   1       5.242  -4.402   3.287  1.00 20.00    -0.346 N 
HETATM    8  C13 LQK X   1       5.249  -3.281   2.546  1.00 20.00     0.238 C 
HETATM    9  O1  LQK X   1       4.797  -2.225   2.987  1.00 20.00    -0.272 OA
HETATM   10  C18 LQK X   1       4.655  -4.500   4.638  1.00 20.00     0.131 C 
ENDROOT
BRANCH   8  11
HETATM   11  C14 LQK X   1       5.836  -3.354   1.135  1.00 20.00     0.121 C 
HETATM   12  C17 LQK X   1       5.082  -4.034   0.048  1.00 20.00     0.031 C 
HETATM   13  C16 LQK X   1       5.223  -2.563   0.027  1.00 20.00     0.031 C 
BRANCH  11  14
HETATM   14  C15 LQK X   1       7.343  -3.501   1.221  1.00 20.00     0.233 C 
HETATM   15  N3  LQK X   1       8.024  -3.189   0.106  1.00 20.00    -0.369 N 
HETATM   16  H26 LQK X   1       8.989  -3.353   0.060  1.00 20.00     0.159 HD
HETATM   17  H25 LQK X   1       7.555  -2.798  -0.661  1.00 20.00     0.159 HD
HETATM   18  O2  LQK X   1       7.890  -3.883   2.255  1.00 20.00    -0.272 OA
ENDBRANCH  11  14
ENDBRANCH   8  11
BRANCH   1  19
HETATM   19  N1  LQK X   1       2.705  -5.284   2.878  1.00 20.00    -0.071 N 
HETATM   20  H2  LQK X   1       3.366  -4.533   2.560  1.00 20.00     0.277 HD
HETATM   21  H1  LQK X   1       2.341  -5.050   3.834  1.00 20.00     0.277 HD
BRANCH  19  22
HETATM   22  C6  LQK X   1       1.554  -5.328   1.934  1.00 20.00     0.232 C 
BRANCH  22  23
HETATM   23  C5  LQK X   1       0.846  -3.988   1.835  1.00 20.00     0.027 C 
BRANCH  23  24
HETATM   24  C4  LQK X   1      -0.168  -3.924   0.710  1.00 20.00     0.002 C 
BRANCH  24  25
HETATM   25  C3  LQK X   1      -1.114  -2.750   0.753  1.00 20.00    -0.000 C 
BRANCH  25  26
HETATM   26  C2  LQK X   1      -2.095  -2.725  -0.404  1.00 20.00    -0.005 C 
HETATM   27  C1  LQK X   1      -3.017  -1.521  -0.384  1.00 20.00     0.005 C 
ENDBRANCH  25  26
ENDBRANCH  24  25
ENDBRANCH  23  24
ENDBRANCH  22  23
ENDBRANCH  19  22
ENDBRANCH   1  19
TORSDOF 8
