REMARK  5 active torsions:
REMARK  status: ('A' for Active; 'I' for Inactive)
REMARK    1  A    between atoms: C2_2  and  C3_3 
REMARK    2  A    between atoms: C5_6  and  C6_7 
REMARK    3  A    between atoms: C6_7  and  N2_8 
REMARK    4  A    between atoms: C9_11  and  N3_12 
REMARK       I    between atoms: N3_12  and  C10_13 
REMARK    5  A    between atoms: C10_13  and  C11_15 
ROOT
HETATM    1  N2  LQL X   1       3.873  -2.999   2.876  1.00 20.00     0.103 N 
HETATM    2  C7  LQL X   1       2.739  -3.807   3.393  1.00 20.00     0.276 C 
HETATM    3  C8  LQL X   1       3.355  -5.219   3.555  1.00 20.00     0.063 C 
HETATM    4  C9  LQL X   1       4.784  -4.918   4.058  1.00 20.00     0.066 C 
HETATM    5  C16 LQL X   1       5.782  -5.817   3.303  1.00 20.00     0.033 C 
HETATM    6  C17 LQL X   1       6.965  -4.874   2.970  1.00 20.00     0.005 C 
HETATM    7  C18 LQL X   1       6.253  -3.546   2.616  1.00 20.00     0.038 C 
HETATM    8  C19 LQL X   1       5.072  -3.467   3.605  1.00 20.00     0.251 C 
ENDROOT
BRANCH   4   9
HETATM    9  N3  LQL X   1       4.897  -5.069   5.500  1.00 20.00    -0.346 N 
HETATM   10  C10 LQL X   1       4.505  -6.189   6.139  1.00 20.00     0.250 C 
HETATM   11  O1  LQL X   1       3.898  -7.090   5.580  1.00 20.00    -0.268 OA
HETATM   12  H14 LQL X   1       5.270  -4.331   6.026  1.00 20.00     0.163 HD
BRANCH  10  13
HETATM   13  C11 LQL X   1       4.848  -6.283   7.570  1.00 20.00     0.031 C 
HETATM   14  C15 LQL X   1       4.289  -7.399   8.396  1.00 20.00     0.048 C 
HETATM   15  C14 LQL X   1       5.084  -7.522   9.682  1.00 20.00     0.031 C 
HETATM   16  C13 LQL X   1       5.242  -6.174  10.310  1.00 20.00     0.174 C 
HETATM   17  O2  LQL X   1       5.939  -5.264   9.447  1.00 20.00    -0.362 OA
HETATM   18  C12 LQL X   1       5.645  -5.384   8.114  1.00 20.00     0.147 C 
ENDBRANCH  10  13
ENDBRANCH   4   9
BRANCH   1  19
HETATM   19  C6  LQL X   1       3.641  -1.564   3.137  1.00 20.00     0.359 C 
BRANCH  19  20
HETATM   20  C5  LQL X   1       4.799  -0.713   2.684  1.00 20.00     0.173 A 
HETATM   21  O3  LQL X   1       4.747  -0.219   1.419  1.00 20.00    -0.297 OA
HETATM   22  C3  LQL X   1       5.912   0.508   1.275  1.00 20.00     0.072 A 
HETATM   23  C4  LQL X   1       6.588   0.415   2.440  1.00 20.00     0.152 A 
HETATM   24  N1  LQL X   1       5.874  -0.364   3.334  1.00 20.00    -0.237 NA
BRANCH  22  25
HETATM   25  C2  LQL X   1       6.120   1.170  -0.037  1.00 20.00     0.062 C 
HETATM   26  C1  LQL X   1       6.087   0.294  -1.279  1.00 20.00     0.012 C 
ENDBRANCH  22  25
ENDBRANCH  19  20
ENDBRANCH   1  19
TORSDOF 5
