REMARK  4 active torsions:
REMARK  status: ('A' for Active; 'I' for Inactive)
REMARK    1  A    between atoms: C1_2  and  C11_17 
REMARK       I    between atoms: C1_2  and  N1_3 
REMARK    2  A    between atoms: N1_3  and  C2_4 
REMARK       I    between atoms: N2_7  and  C5_8 
REMARK    3  A    between atoms: C5_8  and  C6_10 
REMARK    4  A    between atoms: N3_19  and  C13_20 
ROOT
HETATM    1  C2  LWQ X   1       2.427   1.173  -0.045  1.00 20.00     0.104 C 
HETATM    2  C3  LWQ X   1       2.946   0.889   1.391  1.00 20.00     0.046 C 
HETATM    3  C4  LWQ X   1       4.488   0.869   1.332  1.00 20.00     0.128 C 
HETATM    4  N2  LWQ X   1       4.776   1.550   0.038  1.00 20.00    -0.347 N 
HETATM    5  C5  LWQ X   1       5.994   1.643  -0.519  1.00 20.00     0.262 C 
HETATM    6  O2  LWQ X   1       6.247   2.405  -1.449  1.00 20.00    -0.270 OA
HETATM    7  C10 LWQ X   1       3.545   2.108  -0.545  1.00 20.00     0.151 C 
ENDROOT
BRANCH   1   8
HETATM    8  N1  LWQ X   1       1.132   1.837  -0.031  1.00 20.00    -0.351 N 
HETATM    9  H2  LWQ X   1       1.099   2.811  -0.131  1.00 20.00     0.163 HD
HETATM   10  C1  LWQ X   1      -0.013   1.164   0.112  1.00 20.00     0.254 C 
HETATM   11  O1  LWQ X   1      -0.097  -0.054   0.200  1.00 20.00    -0.268 OA
BRANCH  10  12
HETATM   12  C11 LWQ X   1      -1.217   2.027   0.158  1.00 20.00     0.068 A 
HETATM   13  C12 LWQ X   1      -2.527   1.621   0.072  1.00 20.00     0.136 A 
HETATM   14  N3  LWQ X   1      -3.290   2.737   0.159  1.00 20.00    -0.220 N 
HETATM   15  N4  LWQ X   1      -2.534   3.856   0.304  1.00 20.00    -0.180 NA
HETATM   16  C14 LWQ X   1      -1.271   3.420   0.297  1.00 20.00     0.157 A 
BRANCH  14  17
HETATM   17  C13 LWQ X   1      -4.696   2.859   0.117  1.00 20.00     0.480 C 
HETATM   18  F2  LWQ X   1      -5.097   3.153  -1.121  1.00 20.00    -0.189 F 
HETATM   19  F3  LWQ X   1      -5.265   1.682   0.421  1.00 20.00    -0.189 F 
ENDBRANCH  14  17
ENDBRANCH  10  12
ENDBRANCH   1   8
BRANCH   5  20
HETATM   20  C6  LWQ X   1       7.059   0.740   0.071  1.00 20.00     0.206 C 
HETATM   21  F1  LWQ X   1       6.492  -0.573   0.332  1.00 20.00    -0.230 F 
HETATM   22  C7  LWQ X   1       8.251   0.639  -0.849  1.00 20.00     0.082 C 
HETATM   23  C8  LWQ X   1       9.371   0.316   0.112  1.00 20.00     0.171 C 
HETATM   24  O3  LWQ X   1       9.042   1.016   1.325  1.00 20.00    -0.387 OA
HETATM   25  C9  LWQ X   1       7.639   1.340   1.334  1.00 20.00     0.221 C 
ENDBRANCH   5  20
TORSDOF 4
