REMARK  5 active torsions:
REMARK  status: ('A' for Active; 'I' for Inactive)
REMARK    1  A    between atoms: O1_2  and  C2_3 
REMARK    2  A    between atoms: C6_9  and  C7_10 
REMARK    3  A    between atoms: C7_10  and  N2_11 
REMARK    4  A    between atoms: C12_18  and  C13_19 
REMARK    5  A    between atoms: C13_19  and  O2_20 
ROOT
HETATM    1  N2  LZ9 X   1      -1.410  -2.938  -0.274  1.00 20.00     0.102 N 
HETATM    2  C8  LZ9 X   1      -1.954  -1.610  -0.530  1.00 20.00     0.301 C 
HETATM    3  C9  LZ9 X   1      -3.444  -1.679  -0.765  1.00 20.00     0.264 C 
HETATM    4  N3  LZ9 X   1      -4.125  -2.292   0.401  1.00 20.00    -0.071 N 
HETATM    5  H1  LZ9 X   1      -5.147  -2.401   0.185  1.00 20.00     0.279 HD
HETATM    6  C10 LZ9 X   1      -3.957  -1.399   1.595  1.00 20.00     0.269 C 
HETATM    7  C11 LZ9 X   1      -3.546  -3.622   0.703  1.00 20.00     0.272 C 
HETATM    8  C12 LZ9 X   1      -2.055  -3.517   0.908  1.00 20.00     0.272 C 
ENDROOT
BRANCH   1   9
HETATM    9  C7  LZ9 X   1       0.045  -2.836  -0.039  1.00 20.00     0.316 C 
BRANCH   9  10
HETATM   10  C6  LZ9 X   1       0.370  -1.918   1.115  1.00 20.00     0.024 A 
HETATM   11  C5  LZ9 X   1       0.512  -2.419   2.394  1.00 20.00     0.034 A 
HETATM   12  C4  LZ9 X   1       0.810  -1.543   3.422  1.00 20.00     0.029 A 
HETATM   13 BR1  LZ9 X   1       1.011  -2.169   5.194  1.00 20.00    -0.050 Br
HETATM   14  C3  LZ9 X   1       0.957  -0.200   3.129  1.00 20.00     0.138 A 
HETATM   15  N1  LZ9 X   1       0.824   0.302   1.897  1.00 20.00    -0.235 NA
HETATM   16  C2  LZ9 X   1       0.531  -0.558   0.911  1.00 20.00     0.171 A 
BRANCH  16  17
HETATM   17  O1  LZ9 X   1       0.387  -0.075  -0.340  1.00 20.00    -0.339 OA
HETATM   18  C1  LZ9 X   1       0.352   1.352  -0.492  1.00 20.00     0.211 C 
ENDBRANCH  16  17
ENDBRANCH   9  10
ENDBRANCH   1   9
BRANCH   8  19
HETATM   19  C13 LZ9 X   1      -1.493  -4.887   1.155  1.00 20.00     0.201 C 
BRANCH  19  20
HETATM   20  O2  LZ9 X   1      -1.473  -5.623  -0.061  1.00 20.00    -0.399 OA
HETATM   21  H21 LZ9 X   1      -0.716  -6.213  -0.066  1.00 20.00     0.209 HD
ENDBRANCH  19  20
ENDBRANCH   8  19
TORSDOF 5
