REMARK  9 active torsions:
REMARK  status: ('A' for Active; 'I' for Inactive)
REMARK    1  A    between atoms: C2_2  and  N1_4 
REMARK    2  A    between atoms: N1_4  and  C15_18 
REMARK    3  A    between atoms: N1_4  and  C4_6 
REMARK    4  A    between atoms: C4_6  and  C5_7 
REMARK    5  A    between atoms: C5_7  and  C6_8 
REMARK    6  A    between atoms: C6_8  and  O1_9 
REMARK    7  A    between atoms: O1_9  and  C7_10 
REMARK    8  A    between atoms: C7_10  and  C8_11 
REMARK    9  A    between atoms: C8_11  and  C9_12 
ROOT
HETATM    1  C4  M5C X   1      -1.636  -0.531   1.919  1.00 20.00     0.238 C 
ENDROOT
BRANCH   1   2
HETATM    2  C5  M5C X   1      -0.757  -1.349   2.803  1.00 20.00     0.054 C 
BRANCH   2   3
HETATM    3  C6  M5C X   1      -0.906  -1.174   4.287  1.00 20.00     0.169 C 
BRANCH   3   4
HETATM    4  O1  M5C X   1      -0.001  -2.038   4.963  1.00 20.00    -0.391 OA
BRANCH   4   5
HETATM    5  C7  M5C X   1      -0.050  -1.923   6.379  1.00 20.00     0.172 C 
BRANCH   5   6
HETATM    6  C8  M5C X   1       0.992  -2.875   6.952  1.00 20.00     0.064 C 
BRANCH   6   7
HETATM    7  C9  M5C X   1       2.384  -2.597   6.449  1.00 20.00    -0.056 A 
HETATM    8  C14 M5C X   1       2.846  -3.229   5.310  1.00 20.00     0.007 A 
HETATM    9  C13 M5C X   1       4.125  -2.969   4.844  1.00 20.00     0.001 A 
HETATM   10  C12 M5C X   1       4.941  -2.082   5.521  1.00 20.00     0.000 A 
HETATM   11  C11 M5C X   1       4.477  -1.448   6.664  1.00 20.00     0.001 A 
HETATM   12  C10 M5C X   1       3.202  -1.707   7.128  1.00 20.00     0.007 A 
ENDBRANCH   6   7
ENDBRANCH   5   6
ENDBRANCH   4   5
ENDBRANCH   3   4
ENDBRANCH   2   3
ENDBRANCH   1   2
BRANCH   1  13
HETATM   13  N1  M5C X   1      -1.291  -0.561   0.443  1.00 20.00    -0.061 N 
HETATM   14  H1  M5C X   1      -0.343  -0.118   0.351  1.00 20.00     0.280 HD
BRANCH  13  15
HETATM   15  C15 M5C X   1      -2.220   0.259  -0.397  1.00 20.00     0.214 C 
HETATM   16  C18 M5C X   1      -3.688  -0.022  -0.021  1.00 20.00     0.201 C 
HETATM   17  O2  M5C X   1      -4.240   1.209   0.482  1.00 20.00    -0.389 OA
HETATM   18  C17 M5C X   1      -3.494   2.285  -0.126  1.00 20.00     0.169 C 
HETATM   19  C16 M5C X   1      -2.033   1.768  -0.108  1.00 20.00     0.061 C 
ENDBRANCH  13  15
BRANCH  13  20
HETATM   20  C2  M5C X   1      -1.165  -1.949  -0.118  1.00 20.00     0.180 C 
HETATM   21  C1  M5C X   1      -2.412  -2.778   0.133  1.00 20.00     0.039 C 
HETATM   22  C3  M5C X   1      -0.773  -1.907  -1.581  1.00 20.00     0.039 C 
ENDBRANCH  13  20
ENDBRANCH   1  13
TORSDOF 9
