REMARK  5 active torsions:
REMARK  status: ('A' for Active; 'I' for Inactive)
REMARK    1  A    between atoms: C6_6  and  C7_7 
REMARK       I    between atoms: C7_7  and  N1_9 
REMARK    2  A    between atoms: N1_9  and  C8_10 
REMARK    3  A    between atoms: C8_10  and  C9_11 
REMARK    4  A    between atoms: N2_14  and  C12_15 
REMARK    5  A    between atoms: C12_15  and  C13_16 
ROOT
HETATM    1  C1  M8L X   1      -0.026  -1.199  -0.005  1.00 20.00     0.018 C 
HETATM    2  C2  M8L X   1       0.008   0.000   0.003  1.00 20.00    -0.078 C 
HETATM    3  C3  M8L X   1       0.019   1.430   0.012  1.00 20.00     0.017 A 
HETATM    4  C4  M8L X   1      -1.200   2.090   0.032  1.00 20.00     0.021 A 
HETATM    5  C5  M8L X   1      -1.238   3.471   0.036  1.00 20.00     0.018 A 
HETATM    6  C6  M8L X   1      -0.057   4.197   0.025  1.00 20.00     0.032 A 
HETATM    7  C19 M8L X   1       1.158   3.540   0.005  1.00 20.00     0.018 A 
HETATM    8  C20 M8L X   1       1.197   2.154   0.001  1.00 20.00     0.021 A 
ENDROOT
BRANCH   6   9
HETATM    9  C7  M8L X   1      -0.110   5.678   0.035  1.00 20.00     0.251 C 
HETATM   10  N1  M8L X   1      -1.300   6.277   0.136  1.00 20.00    -0.356 N 
HETATM   11  H5  M8L X   1      -2.103   5.721   0.212  1.00 20.00     0.162 HD
HETATM   12  O1  M8L X   1       0.928   6.343  -0.048  1.00 20.00    -0.268 OA
BRANCH  10  13
HETATM   13  C8  M8L X   1      -1.444   7.725   0.136  1.00 20.00     0.129 C 
BRANCH  13  14
HETATM   14  C9  M8L X   1      -1.902   8.270  -1.220  1.00 20.00     0.033 C 
HETATM   15  C10 M8L X   1      -3.340   7.844  -1.501  1.00 20.00     0.038 C 
HETATM   16  C11 M8L X   1      -4.104   9.152  -1.570  1.00 20.00     0.273 C 
HETATM   17  N2  M8L X   1      -3.099  10.139  -1.968  1.00 20.00     0.096 N 
HETATM   18  C18 M8L X   1      -1.904   9.779  -1.204  1.00 20.00     0.279 C 
BRANCH  17  19
HETATM   19  C12 M8L X   1      -3.545  11.504  -1.626  1.00 20.00     0.352 C 
BRANCH  19  20
HETATM   20  C13 M8L X   1      -2.620  12.557  -2.180  1.00 20.00     0.153 A 
HETATM   21  N3  M8L X   1      -3.192  13.611  -2.761  1.00 20.00    -0.243 NA
HETATM   22  C14 M8L X   1      -2.345  14.533  -3.249  1.00 20.00     0.127 A 
HETATM   23  C15 M8L X   1      -0.972  14.405  -3.152  1.00 20.00    -0.027 A 
HETATM   24  C16 M8L X   1      -0.082  15.486  -3.718  1.00 20.00     0.051 C 
HETATM   25  C17 M8L X   1      -0.499  13.268  -2.529  1.00 20.00     0.127 A 
HETATM   26  N4  M8L X   1      -1.314  12.326  -2.032  1.00 20.00    -0.243 NA
ENDBRANCH  19  20
ENDBRANCH  17  19
ENDBRANCH  13  14
ENDBRANCH  10  13
ENDBRANCH   6   9
TORSDOF 5
