REMARK  5 active torsions:
REMARK  status: ('A' for Active; 'I' for Inactive)
REMARK    1  A    between atoms: C3_5  and  C4_6 
REMARK    2  A    between atoms: C4_6  and  N2_7 
REMARK    3  A    between atoms: C6_10  and  O2_11 
REMARK    4  A    between atoms: C8_13  and  C9_14 
REMARK    5  A    between atoms: C12_17  and  C13_18 
ROOT
HETATM    1  N2  MD7 X   1       2.968   4.459  -1.147  1.00 20.00    -0.058 N 
HETATM    2  H2  MD7 X   1       3.446   3.570  -0.859  1.00 20.00     0.281 HD
HETATM    3  C5  MD7 X   1       3.652   5.667  -0.543  1.00 20.00     0.267 C 
HETATM    4  C6  MD7 X   1       4.854   5.922  -1.427  1.00 20.00     0.146 C 
HETATM    5  C7  MD7 X   1       4.503   5.294  -2.785  1.00 20.00     0.071 C 
HETATM    6  C8  MD7 X   1       3.115   4.700  -2.631  1.00 20.00     0.223 C 
ENDROOT
BRANCH   6   7
HETATM    7  C9  MD7 X   1       2.060   5.671  -3.123  1.00 20.00    -0.028 A 
HETATM    8  C10 MD7 X   1       1.079   5.241  -3.997  1.00 20.00     0.010 A 
HETATM    9  C11 MD7 X   1       0.111   6.128  -4.442  1.00 20.00     0.017 A 
HETATM   10  C12 MD7 X   1       0.130   7.442  -4.017  1.00 20.00     0.047 A 
HETATM   11  C14 MD7 X   1       1.113   7.873  -3.140  1.00 20.00     0.017 A 
HETATM   12  C15 MD7 X   1       2.078   6.990  -2.696  1.00 20.00     0.010 A 
BRANCH  10  13
HETATM   13  C13 MD7 X   1      -0.913   8.401  -4.503  1.00 20.00     0.417 C 
HETATM   14  F1  MD7 X   1      -0.880   8.587  -5.813  1.00 20.00    -0.166 F 
HETATM   15  F2  MD7 X   1      -2.150   7.968  -4.253  1.00 20.00    -0.166 F 
HETATM   16  F3  MD7 X   1      -0.836   9.594  -3.935  1.00 20.00    -0.166 F 
ENDBRANCH  10  13
ENDBRANCH   6   7
BRANCH   1  17
HETATM   17  C4  MD7 X   1       1.515   4.401  -0.748  1.00 20.00     0.269 C 
BRANCH  17  18
HETATM   18  C3  MD7 X   1       1.247   4.342   0.741  1.00 20.00     0.177 C 
HETATM   19  C2  MD7 X   1       1.847   3.068   1.341  1.00 20.00     0.159 C 
HETATM   20  N1  MD7 X   1       2.576   3.673   2.510  1.00 20.00    -0.334 N 
HETATM   21  C1  MD7 X   1       2.602   4.962   2.473  1.00 20.00     0.361 C 
HETATM   22  H5  MD7 X   1       2.988   3.143   3.224  1.00 20.00     0.164 HD
HETATM   23  O3  MD7 X   1       1.923   5.466   1.433  1.00 20.00    -0.295 OA
HETATM   24  O1  MD7 X   1       3.175   5.639   3.287  1.00 20.00    -0.239 OA
ENDBRANCH  17  18
ENDBRANCH   1  17
BRANCH   4  25
HETATM   25  O2  MD7 X   1       6.019   5.305  -0.877  1.00 20.00    -0.394 OA
HETATM   26  H12 MD7 X   1       6.111   4.419  -1.234  1.00 20.00     0.210 HD
ENDBRANCH   4  25
TORSDOF 5
