REMARK  8 active torsions:
REMARK  status: ('A' for Active; 'I' for Inactive)
REMARK    1  A    between atoms: C2_2  and  C3_3 
REMARK    2  A    between atoms: C3_3  and  C4_5 
REMARK    3  A    between atoms: C3_3  and  O1_4 
REMARK    4  A    between atoms: C4_5  and  N1_6 
REMARK    5  A    between atoms: N1_6  and  C6_9 
REMARK    6  A    between atoms: C6_9  and  C7_10 
REMARK    7  A    between atoms: C6_9  and  C8_12 
REMARK    8  A    between atoms: C7_10  and  O2_11 
ROOT
HETATM    1  C6  MTH X   1       1.441  -3.957  -2.486  1.00 20.00     0.244 C 
ENDROOT
BRANCH   1   2
HETATM    2  C7  MTH X   1       1.824  -4.596  -1.182  1.00 20.00     0.202 C 
BRANCH   2   3
HETATM    3  O2  MTH X   1       3.021  -4.005  -0.693  1.00 20.00    -0.398 OA
HETATM    4  H17 MTH X   1       3.347  -3.366  -1.331  1.00 20.00     0.209 HD
ENDBRANCH   2   3
ENDBRANCH   1   2
BRANCH   1   5
HETATM    5  C8  MTH X   1       2.306  -4.344  -3.663  1.00 20.00    -0.024 A 
HETATM    6  C9  MTH X   1       3.381  -3.547  -4.024  1.00 20.00     0.009 A 
HETATM    7  C10 MTH X   1       4.169  -3.898  -5.104  1.00 20.00     0.002 A 
HETATM    8  C11 MTH X   1       3.888  -5.050  -5.822  1.00 20.00     0.019 A 
HETATM    9  C12 MTH X   1       2.816  -5.845  -5.461  1.00 20.00     0.011 A 
HETATM   10  C13 MTH X   1       2.026  -5.492  -4.378  1.00 20.00     0.028 A 
HETATM   11 BR1  MTH X   1       2.428  -7.412  -6.444  1.00 20.00    -0.051 Br
ENDBRANCH   1   5
BRANCH   1  12
HETATM   12  N1  MTH X   1       1.439  -2.463  -2.354  1.00 20.00    -0.062 N 
HETATM   13  C5  MTH X   1       1.024  -1.789  -3.628  1.00 20.00     0.270 C 
HETATM   14  H2  MTH X   1       2.434  -2.178  -2.175  1.00 20.00     0.280 HD
BRANCH  12  15
HETATM   15  C4  MTH X   1       0.635  -1.965  -1.186  1.00 20.00     0.266 C 
BRANCH  15  16
HETATM   16  C3  MTH X   1       0.708  -0.476  -0.930  1.00 20.00     0.143 C 
BRANCH  16  17
HETATM   17  O1  MTH X   1       2.057  -0.167  -0.622  1.00 20.00    -0.394 OA
HETATM   18  H9  MTH X   1       2.087   0.611  -0.060  1.00 20.00     0.210 HD
ENDBRANCH  16  17
BRANCH  16  19
HETATM   19  C2  MTH X   1      -0.206  -0.103   0.226  1.00 20.00     0.029 C 
HETATM   20  C1  MTH X   1      -0.240   1.389   0.510  1.00 20.00     0.007 C 
ENDBRANCH  16  19
ENDBRANCH  15  16
ENDBRANCH  12  15
ENDBRANCH   1  12
TORSDOF 8
