REMARK  4 active torsions:
REMARK  status: ('A' for Active; 'I' for Inactive)
REMARK    1  A    between atoms: N1_4  and  C4_6 
REMARK    2  A    between atoms: C4_6  and  C5_7 
REMARK       I    between atoms: C5_7  and  N2_8 
REMARK    3  A    between atoms: C8_12  and  N3_13 
REMARK       I    between atoms: N3_13  and  C9_14 
REMARK    4  A    between atoms: C9_14  and  C10_16 
ROOT
HETATM    1  C1  MYT X   1      -0.016   1.526   0.019  1.00 20.00     0.014 C 
HETATM    2  C2  MYT X   1       0.009  -0.003   0.001  1.00 20.00     0.030 C 
HETATM    3  C3  MYT X   1       0.687  -0.471  -1.275  1.00 20.00     0.241 C 
HETATM    4  N1  MYT X   1       0.769  -1.964  -1.282  1.00 20.00    -0.062 N 
HETATM    5  H2  MYT X   1      -0.205  -2.356  -1.278  1.00 20.00     0.280 HD
HETATM    6  C6  MYT X   1       1.504  -2.495  -0.096  1.00 20.00     0.237 C 
HETATM    7  C7  MYT X   1       0.851  -2.027   1.196  1.00 20.00     0.053 C 
HETATM    8  C8  MYT X   1       0.752  -0.505   1.239  1.00 20.00     0.091 C 
ENDROOT
BRANCH   8   9
HETATM    9  N3  MYT X   1       0.024  -0.098   2.442  1.00 20.00    -0.351 N 
HETATM   10  H17 MYT X   1      -0.950  -0.011   2.374  1.00 20.00     0.163 HD
HETATM   11  C9  MYT X   1       0.587   0.163   3.627  1.00 20.00     0.270 C 
HETATM   12  O2  MYT X   1       1.806   0.108   3.821  1.00 20.00    -0.266 OA
BRANCH  11  13
HETATM   13  C10 MYT X   1      -0.277   0.540   4.780  1.00 20.00     0.125 A 
HETATM   14  N5  MYT X   1      -1.581   0.627   4.588  1.00 20.00    -0.243 NA
HETATM   15  C17 MYT X   1      -2.376   0.967   5.633  1.00 20.00     0.070 A 
HETATM   16  C16 MYT X   1      -3.776   1.023   5.380  1.00 20.00     0.052 A 
HETATM   17  C13 MYT X   1      -1.868   1.275   6.921  1.00 20.00     0.010 A 
HETATM   18  C15 MYT X   1      -4.641   1.353   6.446  1.00 20.00     0.118 A 
HETATM   19  N4  MYT X   1      -4.152   1.705   7.655  1.00 20.00    -0.272 NA
HETATM   20  C14 MYT X   1      -2.859   1.678   7.900  1.00 20.00     0.130 A 
HETATM   21  C12 MYT X   1      -0.469   1.181   7.106  1.00 20.00     0.018 A 
HETATM   22  C11 MYT X   1       0.303   0.793   6.034  1.00 20.00     0.038 A 
ENDBRANCH  11  13
ENDBRANCH   8   9
BRANCH   4  23
HETATM   23  C4  MYT X   1       1.485  -2.405  -2.534  1.00 20.00     0.336 C 
BRANCH  23  24
HETATM   24  C5  MYT X   1       1.657  -3.896  -2.667  1.00 20.00     0.241 C 
HETATM   25  N2  MYT X   1       2.315  -4.361  -3.740  1.00 20.00    -0.369 N 
HETATM   26  H12 MYT X   1       2.433  -5.327  -3.862  1.00 20.00     0.159 HD
HETATM   27  H11 MYT X   1       2.678  -3.736  -4.402  1.00 20.00     0.159 HD
HETATM   28  O1  MYT X   1       1.207  -4.662  -1.816  1.00 20.00    -0.272 OA
ENDBRANCH  23  24
ENDBRANCH   4  23
TORSDOF 4
