REMARK  3 active torsions:
REMARK  status: ('A' for Active; 'I' for Inactive)
REMARK    1  A    between atoms: C1_2  and  C15_20 
REMARK       I    between atoms: C1_2  and  N1_3 
REMARK    2  A    between atoms: N1_3  and  C2_4 
REMARK       I    between atoms: N2_7  and  C5_8 
REMARK    3  A    between atoms: C5_8  and  C6_10 
ROOT
HETATM    1  C2  N0F X   1       3.060  -0.205  -0.222  1.00 20.00     0.104 C 
HETATM    2  C3  N0F X   1       3.725   0.988  -0.843  1.00 20.00     0.046 C 
HETATM    3  C4  N0F X   1       4.950   1.187   0.094  1.00 20.00     0.128 C 
HETATM    4  N2  N0F X   1       4.431   0.737   1.359  1.00 20.00    -0.346 N 
HETATM    5  C5  N0F X   1       5.201   1.013   2.501  1.00 20.00     0.255 C 
HETATM    6  O2  N0F X   1       6.301   1.483   2.442  1.00 20.00    -0.267 OA
HETATM    7  C14 N0F X   1       3.203  -0.032   1.263  1.00 20.00     0.151 C 
ENDROOT
BRANCH   1   8
HETATM    8  N1  N0F X   1       1.650  -0.250  -0.594  1.00 20.00    -0.353 N 
HETATM    9  C1  N0F X   1       1.046  -1.289  -1.193  1.00 20.00     0.243 C 
HETATM   10  O1  N0F X   1       1.618  -2.353  -1.425  1.00 20.00    -0.271 OA
HETATM   11  H3  N0F X   1       1.103   0.537  -0.391  1.00 20.00     0.163 HD
BRANCH   9  12
HETATM   12  C15 N0F X   1      -0.406  -1.075  -1.575  1.00 20.00     0.203 A 
HETATM   13  N4  N0F X   1      -0.799  -1.983  -2.664  1.00 20.00    -0.322 N 
HETATM   14  H22 N0F X   1      -0.402  -2.005  -3.560  1.00 20.00     0.165 HD
HETATM   15  C17 N0F X   1      -1.792  -2.775  -2.227  1.00 20.00     0.361 A 
HETATM   16  O4  N0F X   1      -2.308  -3.619  -2.913  1.00 20.00    -0.238 OA
HETATM   17  O3  N0F X   1      -2.155  -2.540  -0.961  1.00 20.00    -0.301 OA
HETATM   18  C16 N0F X   1      -1.341  -1.464  -0.413  1.00 20.00     0.215 A 
ENDBRANCH   9  12
ENDBRANCH   1   8
BRANCH   5  19
HETATM   19  C6  N0F X   1       4.563   0.682   3.849  1.00 20.00     0.049 A 
HETATM   20  C7  N0F X   1       3.237   0.350   4.095  1.00 20.00     0.108 A 
HETATM   21  N3  N0F X   1       3.135   0.140   5.441  1.00 20.00    -0.359 N 
HETATM   22  C8  N0F X   1       1.873  -0.097   6.155  1.00 20.00     0.128 C 
HETATM   23  C12 N0F X   1       4.361   0.336   6.051  1.00 20.00     0.012 A 
HETATM   24  C9  N0F X   1       2.144  -0.584   7.561  1.00 20.00     0.021 C 
HETATM   25  C10 N0F X   1       3.204   0.186   8.247  1.00 20.00     0.008 C 
HETATM   26  C11 N0F X   1       4.520   0.127   7.527  1.00 20.00     0.057 C 
HETATM   27  C13 N0F X   1       5.283   0.670   5.098  1.00 20.00     0.043 A 
ENDBRANCH   5  19
TORSDOF 3
