REMARK  3 active torsions:
REMARK  status: ('A' for Active; 'I' for Inactive)
REMARK       I    between atoms: C1_2  and  N1_3 
REMARK       I    between atoms: C1_2  and  N3_14 
REMARK    1  A    between atoms: N1_3  and  C2_4 
REMARK    2  A    between atoms: N3_14  and  C11_15 
REMARK    3  A    between atoms: C11_15  and  C12_16 
ROOT
HETATM    1  O1  N49 X   1      -0.106   1.925   1.052  1.00 20.00    -0.247 OA
HETATM    2  C1  N49 X   1       0.602   2.832   0.621  1.00 20.00     0.317 C 
HETATM    3  N1  N49 X   1       1.831   2.620   0.128  1.00 20.00    -0.334 N 
HETATM    4  N3  N49 X   1       0.178   4.099   0.619  1.00 20.00    -0.334 N 
HETATM    5  H4  N49 X   1       2.355   3.388  -0.182  1.00 20.00     0.165 HD
HETATM    6  H14 N49 X   1       0.787   4.801   0.308  1.00 20.00     0.165 HD
ENDROOT
BRANCH   3   7
HETATM    7  C2  N49 X   1       2.414   1.290   0.040  1.00 20.00     0.120 C 
HETATM    8  C3  N49 X   1       3.593   1.345  -0.922  1.00 20.00     0.030 C 
HETATM    9  C4  N49 X   1       4.708   2.182  -0.241  1.00 20.00     0.007 C 
HETATM   10  C5  N49 X   1       5.221   1.508   1.050  1.00 20.00     0.041 C 
HETATM   11  C6  N49 X   1       4.103   0.910   1.896  1.00 20.00    -0.032 A 
HETATM   12  C7  N49 X   1       4.372   0.352   3.159  1.00 20.00     0.123 A 
HETATM   13  C10 N49 X   1       2.789   0.843   1.422  1.00 20.00    -0.026 A 
HETATM   14  N2  N49 X   1       3.403  -0.135   3.961  1.00 20.00    -0.273 NA
HETATM   15  C8  N49 X   1       2.144  -0.125   3.540  1.00 20.00     0.117 A 
HETATM   16  C9  N49 X   1       1.797   0.311   2.255  1.00 20.00     0.029 A 
ENDBRANCH   3   7
BRANCH   4  17
HETATM   17  C11 N49 X   1      -1.157   4.473   1.063  1.00 20.00     0.038 C 
HETATM   18  C17 N49 X   1      -1.732   3.935   2.335  1.00 20.00     0.034 C 
HETATM   19  C18 N49 X   1      -1.391   5.391   2.222  1.00 20.00     0.034 C 
BRANCH  17  20
HETATM   20  C12 N49 X   1      -2.091   4.624  -0.138  1.00 20.00     0.017 C 
HETATM   21  C13 N49 X   1      -1.937   3.414  -1.063  1.00 20.00     0.034 C 
HETATM   22  C14 N49 X   1      -2.816   3.609  -2.300  1.00 20.00     0.232 C 
HETATM   23  N4  N49 X   1      -2.405   4.826  -3.011  1.00 20.00    -0.075 N 
HETATM   24  H3  N49 X   1      -1.387   4.757  -3.260  1.00 20.00     0.277 HD
HETATM   25  H2  N49 X   1      -2.974   4.927  -3.887  1.00 20.00     0.277 HD
HETATM   26  C15 N49 X   1      -2.618   5.999  -2.154  1.00 20.00     0.232 C 
HETATM   27  C16 N49 X   1      -1.730   5.896  -0.911  1.00 20.00     0.034 C 
ENDBRANCH  17  20
ENDBRANCH   4  17
TORSDOF 3
