REMARK  8 active torsions:
REMARK  status: ('A' for Active; 'I' for Inactive)
REMARK    1  A    between atoms: O1_2  and  C2_3 
REMARK    2  A    between atoms: C2_3  and  C3_4 
REMARK    3  A    between atoms: C3_4  and  C4_5 
REMARK    4  A    between atoms: C4_5  and  N1_6 
REMARK    5  A    between atoms: N1_6  and  C5_9 
REMARK    6  A    between atoms: N2_13  and  C9_14 
REMARK    7  A    between atoms: C9_14  and  C10_15 
REMARK    8  A    between atoms: C10_15  and  N3_16 
ROOT
HETATM    1  C5  N9N X   1      -4.708  -2.959  -1.242  1.00 20.00     0.214 C 
HETATM    2  C6  N9N X   1      -5.402  -2.858   0.097  1.00 20.00     0.036 C 
HETATM    3  C7  N9N X   1      -6.832  -3.338  -0.017  1.00 20.00     0.032 C 
HETATM    4  C8  N9N X   1      -7.560  -2.599  -1.130  1.00 20.00     0.272 C 
HETATM    5  N2  N9N X   1      -6.864  -2.760  -2.402  1.00 20.00     0.092 N 
HETATM    6  C15 N9N X   1      -5.502  -2.240  -2.320  1.00 20.00     0.305 C 
ENDROOT
BRANCH   1   7
HETATM    7  N1  N9N X   1      -3.345  -2.336  -1.138  1.00 20.00    -0.068 N 
HETATM    8  H2  N9N X   1      -3.462  -1.315  -0.922  1.00 20.00     0.277 HD
HETATM    9  H1  N9N X   1      -2.858  -2.446  -2.061  1.00 20.00     0.277 HD
BRANCH   7  10
HETATM   10  C4  N9N X   1      -2.491  -2.945  -0.080  1.00 20.00     0.244 C 
BRANCH  10  11
HETATM   11  C3  N9N X   1      -1.160  -2.257   0.099  1.00 20.00     0.005 C 
HETATM   12  C18 N9N X   1      -0.312  -2.138  -1.212  1.00 20.00     0.013 C 
HETATM   13  C17 N9N X   1      -0.696  -0.664  -1.296  1.00 20.00     0.002 C 
HETATM   14  C16 N9N X   1      -1.239  -0.726   0.146  1.00 20.00     0.013 C 
BRANCH  11  15
HETATM   15  C2  N9N X   1      -0.414  -2.887   1.278  1.00 20.00     0.178 C 
BRANCH  15  16
HETATM   16  O1  N9N X   1      -0.349  -4.296   1.184  1.00 20.00    -0.395 OA
HETATM   17  C1  N9N X   1       0.314  -4.914   2.282  1.00 20.00     0.201 C 
ENDBRANCH  15  16
ENDBRANCH  11  15
ENDBRANCH  10  11
ENDBRANCH   7  10
ENDBRANCH   1   7
BRANCH   5  18
HETATM   18  C9  N9N X   1      -6.812  -4.198  -2.748  1.00 20.00     0.302 C 
BRANCH  18  19
HETATM   19  C10 N9N X   1      -8.195  -4.799  -2.682  1.00 20.00     0.302 C 
BRANCH  19  20
HETATM   20  N3  N9N X   1      -9.104  -4.079  -3.579  1.00 20.00     0.094 N 
HETATM   21  C14 N9N X   1      -8.488  -3.947  -4.891  1.00 20.00     0.298 C 
HETATM   22  C13 N9N X   1      -8.257  -5.308  -5.498  1.00 20.00     0.198 C 
HETATM   23  O2  N9N X   1      -9.477  -6.031  -5.622  1.00 20.00    -0.388 OA
HETATM   24  C12 N9N X   1     -10.081  -6.169  -4.345  1.00 20.00     0.198 C 
HETATM   25  C11 N9N X   1     -10.349  -4.822  -3.710  1.00 20.00     0.298 C 
ENDBRANCH  19  20
ENDBRANCH  18  19
ENDBRANCH   5  18
TORSDOF 8
