REMARK  10 active torsions:
REMARK  status: ('A' for Active; 'I' for Inactive)
REMARK    1  A    between atoms: C2_2  and  C3_3 
REMARK    2  A    between atoms: C3_3  and  C4_4 
REMARK    3  A    between atoms: C5_7  and  C6_8 
REMARK    4  A    between atoms: C6_8  and  N3_9 
REMARK    5  A    between atoms: N3_9  and  C8_11 
REMARK    6  A    between atoms: C8_11  and  C9_12 
REMARK    7  A    between atoms: C9_12  and  C10_13 
REMARK    8  A    between atoms: C10_13  and  N4_14 
REMARK       I    between atoms: N4_14  and  C11_15 
REMARK    9  A    between atoms: C11_15  and  C12_17 
REMARK   10  A    between atoms: C13_18  and  C15_20 
ROOT
HETATM    1  C8  NM0 X   1       4.552   1.726   2.301  1.00 20.00     0.274 C 
ENDROOT
BRANCH   1   2
HETATM    2  C9  NM0 X   1       3.234   2.337   1.893  1.00 20.00     0.050 C 
BRANCH   2   3
HETATM    3  C10 NM0 X   1       2.176   1.307   1.539  1.00 20.00     0.124 C 
BRANCH   3   4
HETATM    4  N4  NM0 X   1       0.958   1.913   1.013  1.00 20.00    -0.358 N 
HETATM    5  C11 NM0 X   1      -0.139   1.158   0.807  1.00 20.00     0.241 C 
HETATM    6  O1  NM0 X   1      -0.177  -0.051   1.023  1.00 20.00    -0.269 OA
HETATM    7  H19 NM0 X   1       0.938   2.871   0.809  1.00 20.00     0.162 HD
BRANCH   5   8
HETATM    8  C12 NM0 X   1      -1.287   1.836   0.217  1.00 20.00     0.076 C 
HETATM    9  C13 NM0 X   1      -2.440   1.258  -0.119  1.00 20.00    -0.074 C 
HETATM   10  C14 NM0 X   1      -3.699   2.023  -0.419  1.00 20.00     0.044 C 
BRANCH   9  11
HETATM   11  C15 NM0 X   1      -2.570  -0.240  -0.227  1.00 20.00     0.014 C 
HETATM   12  C16 NM0 X   1      -1.530  -1.064  -0.919  1.00 20.00     0.010 C 
HETATM   13  C17 NM0 X   1      -2.892  -0.923  -1.523  1.00 20.00     0.010 C 
ENDBRANCH   9  11
ENDBRANCH   5   8
ENDBRANCH   3   4
ENDBRANCH   2   3
ENDBRANCH   1   2
BRANCH   1  14
HETATM   14  N3  NM0 X   1       5.546   2.743   2.704  1.00 20.00     0.090 N 
HETATM   15  C7  NM0 X   1       6.084   3.446   1.526  1.00 20.00     0.310 C 
BRANCH  14  16
HETATM   16  C6  NM0 X   1       4.957   3.700   3.663  1.00 20.00     0.340 C 
BRANCH  16  17
HETATM   17  C5  NM0 X   1       5.992   4.718   4.069  1.00 20.00     0.127 A 
HETATM   18  S1  NM0 X   1       7.402   4.284   4.960  1.00 20.00    -0.054 SA
HETATM   19  C4  NM0 X   1       7.840   5.957   4.889  1.00 20.00     0.099 A 
HETATM   20  N1  NM0 X   1       6.987   6.709   4.260  1.00 20.00    -0.147 NA
HETATM   21  N2  NM0 X   1       5.901   5.981   3.783  1.00 20.00    -0.145 NA
BRANCH  19  22
HETATM   22  C3  NM0 X   1       9.164   6.516   5.370  1.00 20.00     0.069 C 
BRANCH  22  23
HETATM   23  C2  NM0 X   1       9.309   8.008   5.113  1.00 20.00     0.002 C 
HETATM   24  C1  NM0 X   1      10.702   8.526   5.371  1.00 20.00     0.005 C 
ENDBRANCH  22  23
ENDBRANCH  19  22
ENDBRANCH  16  17
ENDBRANCH  14  16
ENDBRANCH   1  14
TORSDOF 10
