REMARK  3 active torsions:
REMARK  status: ('A' for Active; 'I' for Inactive)
REMARK    1  A    between atoms: C5_5  and  C6_6 
REMARK       I    between atoms: C6_6  and  N1_8 
REMARK    2  A    between atoms: N1_8  and  C7_9 
REMARK    3  A    between atoms: N2_13  and  C11_15 
ROOT
HETATM    1  C7  O84 X   1       0.090  -6.294   1.274  1.00 20.00     0.055 C 
HETATM    2  C8  O84 X   1      -1.063  -7.156   0.773  1.00 20.00     0.040 C 
HETATM    3  C9  O84 X   1       1.422  -6.801   0.699  1.00 20.00     0.060 C 
HETATM    4  C10 O84 X   1       2.260  -7.180   1.902  1.00 20.00     0.238 C 
HETATM    5  N2  O84 X   1       1.262  -7.463   3.004  1.00 20.00    -0.056 N 
HETATM    6  H1  O84 X   1       1.712  -7.346   3.946  1.00 20.00     0.281 HD
HETATM    7  C16 O84 X   1       0.211  -6.402   2.782  1.00 20.00     0.266 C 
ENDROOT
BRANCH   1   8
HETATM    8  N1  O84 X   1      -0.139  -4.880   0.875  1.00 20.00    -0.346 N 
HETATM    9  C6  O84 X   1       0.784  -3.930   1.054  1.00 20.00     0.253 C 
HETATM   10  O1  O84 X   1       1.868  -4.152   1.576  1.00 20.00    -0.268 OA
HETATM   11  H8  O84 X   1      -0.996  -4.636   0.467  1.00 20.00     0.163 HD
BRANCH   9  12
HETATM   12  C5  O84 X   1       0.428  -2.557   0.581  1.00 20.00     0.049 A 
HETATM   13  C4  O84 X   1       1.352  -1.715  -0.009  1.00 20.00     0.020 A 
HETATM   14  C3  O84 X   1       0.940  -0.463  -0.423  1.00 20.00     0.028 A 
HETATM   15  C2  O84 X   1      -0.382  -0.101  -0.230  1.00 20.00     0.030 A 
HETATM   16  C1  O84 X   1      -0.848   1.254  -0.677  1.00 20.00     0.070 C 
HETATM   17  N4  O84 X   1      -1.288  -0.905   0.344  1.00 20.00    -0.265 NA
HETATM   18  C17 O84 X   1      -0.871  -2.113   0.737  1.00 20.00     0.134 A 
ENDBRANCH   9  12
ENDBRANCH   1   8
BRANCH   5  19
HETATM   19  C11 O84 X   1       0.712  -8.828   2.846  1.00 20.00     0.281 C 
HETATM   20  C15 O84 X   1       1.737  -9.869   3.239  1.00 20.00     0.250 C 
HETATM   21  O2  O84 X   1       2.683 -10.214   2.551  1.00 20.00    -0.271 OA
HETATM   22  N3  O84 X   1       1.451 -10.357   4.462  1.00 20.00    -0.355 N 
HETATM   23  C14 O84 X   1       2.235 -11.385   5.142  1.00 20.00     0.152 C 
HETATM   24  C13 O84 X   1       0.251  -9.725   5.022  1.00 20.00     0.128 C 
HETATM   25  C12 O84 X   1      -0.463  -9.061   3.824  1.00 20.00     0.063 C 
ENDBRANCH   5  19
TORSDOF 3
