REMARK  7 active torsions:
REMARK  status: ('A' for Active; 'I' for Inactive)
REMARK    1  A    between atoms: C2_2  and  C4_4 
REMARK    2  A    between atoms: C5_7  and  C6_8 
REMARK    3  A    between atoms: C6_8  and  N2_9 
REMARK    4  A    between atoms: N2_9  and  C7_10 
REMARK    5  A    between atoms: C9_12  and  C10_13 
REMARK    6  A    between atoms: C10_13  and  N3_14 
REMARK       I    between atoms: N3_14  and  C11_15 
REMARK    7  A    between atoms: C11_15  and  C12_17 
ROOT
HETATM    1  C7  OEP X   1      -1.601  -9.207   3.048  1.00 20.00     0.222 C 
HETATM    2  C8  OEP X   1      -1.942  -8.352   4.323  1.00 20.00     0.041 C 
HETATM    3  C9  OEP X   1      -1.080  -9.306   5.188  1.00 20.00     0.007 C 
HETATM    4  C19 OEP X   1      -0.738 -10.162   3.913  1.00 20.00     0.041 C 
ENDROOT
BRANCH   3   5
HETATM    5  C10 OEP X   1       0.127  -8.641   5.828  1.00 20.00     0.127 C 
BRANCH   5   6
HETATM    6  N3  OEP X   1       1.062  -9.608   6.405  1.00 20.00    -0.360 N 
HETATM    7  H18 OEP X   1       0.962  -9.858   7.348  1.00 20.00     0.162 HD
HETATM    8  C11 OEP X   1       2.046 -10.163   5.692  1.00 20.00     0.226 C 
HETATM    9  O2  OEP X   1       2.211  -9.942   4.504  1.00 20.00    -0.273 OA
BRANCH   8  10
HETATM   10  C12 OEP X   1       2.964 -11.100   6.453  1.00 20.00     0.045 C 
HETATM   11  C14 OEP X   1       2.881 -12.553   6.011  1.00 20.00     0.004 C 
HETATM   12  C15 OEP X   1       3.156 -13.650   7.054  1.00 20.00     0.006 C 
HETATM   13  C13 OEP X   1       4.064 -11.698   5.637  1.00 20.00     0.025 C 
HETATM   14  C16 OEP X   1       2.946 -13.152   8.474  1.00 20.00     0.000 C 
HETATM   15  C17 OEP X   1       3.734 -11.890   8.726  1.00 20.00     0.001 C 
HETATM   16  C18 OEP X   1       3.162 -10.733   7.912  1.00 20.00     0.020 C 
ENDBRANCH   8  10
ENDBRANCH   5   6
ENDBRANCH   3   5
BRANCH   1  17
HETATM   17  N2  OEP X   1      -0.834  -8.470   2.012  1.00 20.00     0.095 N 
HETATM   18  H11 OEP X   1      -0.130  -7.954   2.458  1.00 20.00     0.316 HD
BRANCH  17  19
HETATM   19  C6  OEP X   1      -1.654  -7.540   1.210  1.00 20.00     0.358 C 
BRANCH  19  20
HETATM   20  C5  OEP X   1      -0.810  -6.671   0.314  1.00 20.00     0.201 A 
HETATM   21  O1  OEP X   1       0.157  -5.939   0.896  1.00 20.00    -0.194 OA
HETATM   22  N1  OEP X   1       0.808  -5.237  -0.138  1.00 20.00    -0.111 NA
HETATM   23  C4  OEP X   1       0.155  -5.612  -1.206  1.00 20.00     0.159 A 
HETATM   24  N4  OEP X   1      -0.869  -6.508  -0.972  1.00 20.00    -0.207 NA
BRANCH  23  25
HETATM   25  C2  OEP X   1       0.485  -5.113  -2.582  1.00 20.00     0.051 C 
HETATM   26  C1  OEP X   1       0.863  -6.256  -3.510  1.00 20.00     0.018 C 
HETATM   27  C3  OEP X   1      -0.658  -4.304  -3.173  1.00 20.00     0.018 C 
ENDBRANCH  23  25
ENDBRANCH  19  20
ENDBRANCH  17  19
ENDBRANCH   1  17
TORSDOF 7
