REMARK  4 active torsions:
REMARK  status: ('A' for Active; 'I' for Inactive)
REMARK    1  A    between atoms: C3_3  and  C4_4 
REMARK       I    between atoms: C4_4  and  N1_6 
REMARK       I    between atoms: N2_10  and  C8_11 
REMARK    2  A    between atoms: C8_11  and  C9_13 
REMARK    3  A    between atoms: C9_13  and  C10_14 
REMARK    4  A    between atoms: C16_21  and  C17_22 
ROOT
HETATM    1  C4  OH1 X   1      -2.227  -0.556   0.115  1.00 20.00     0.275 C 
HETATM    2  O1  OH1 X   1      -1.159  -1.033  -0.191  1.00 20.00    -0.266 OA
HETATM    3  N1  OH1 X   1      -3.386  -1.309   0.206  1.00 20.00    -0.345 N 
HETATM    4  C5  OH1 X   1      -4.701  -0.722   0.155  1.00 20.00     0.128 C 
HETATM    5  C6  OH1 X   1      -5.404  -0.565   1.536  1.00 20.00     0.040 C 
HETATM    6  C7  OH1 X   1      -5.717  -1.916   2.063  1.00 20.00     0.127 C 
HETATM    7  N2  OH1 X   1      -4.615  -2.890   2.182  1.00 20.00    -0.351 N 
HETATM    8  C8  OH1 X   1      -4.011  -3.158   3.357  1.00 20.00     0.220 C 
HETATM    9  O2  OH1 X   1      -4.309  -2.543   4.378  1.00 20.00    -0.273 OA
HETATM   10  C14 OH1 X   1      -4.232  -3.533   0.955  1.00 20.00     0.145 C 
HETATM   11  C15 OH1 X   1      -3.153  -2.784   0.134  1.00 20.00     0.146 C 
ENDROOT
BRANCH   1  12
HETATM   12  C3  OH1 X   1      -2.357   0.933   0.424  1.00 20.00     0.156 A 
HETATM   13  N3  OH1 X   1      -3.440   1.540   1.060  1.00 20.00    -0.220 NA
HETATM   14  C16 OH1 X   1      -3.149   2.793   1.107  1.00 20.00     0.150 A 
HETATM   15  O3  OH1 X   1      -1.933   3.096   0.567  1.00 20.00    -0.298 OA
HETATM   16  C2  OH1 X   1      -1.441   1.883   0.126  1.00 20.00     0.085 A 
HETATM   17  C1  OH1 X   1      -0.135   1.661  -0.556  1.00 20.00     0.079 C 
BRANCH  14  18
HETATM   18  C17 OH1 X   1      -4.067   3.830   1.701  1.00 20.00     0.063 C 
HETATM   19  C18 OH1 X   1      -4.822   3.539   2.961  1.00 20.00     0.013 C 
HETATM   20  C19 OH1 X   1      -3.741   4.575   2.962  1.00 20.00     0.013 C 
ENDBRANCH  14  18
ENDBRANCH   1  12
BRANCH   8  21
HETATM   21  C9  OH1 X   1      -2.955  -4.239   3.383  1.00 20.00     0.107 C 
BRANCH  21  22
HETATM   22  C10 OH1 X   1      -2.195  -4.376   4.692  1.00 20.00    -0.006 C 
HETATM   23  C13 OH1 X   1      -1.101  -5.476   4.679  1.00 20.00     0.005 C 
HETATM   24  C12 OH1 X   1      -0.050  -4.370   4.468  1.00 20.00     0.001 C 
HETATM   25  C11 OH1 X   1      -1.115  -3.315   4.902  1.00 20.00     0.005 C 
ENDBRANCH  21  22
ENDBRANCH   8  21
TORSDOF 4
