REMARK  8 active torsions:
REMARK  status: ('A' for Active; 'I' for Inactive)
REMARK    1  A    between atoms: C2_2  and  C3_3 
REMARK    2  A    between atoms: C3_3  and  N1_4 
REMARK    3  A    between atoms: N1_4  and  C4_6 
REMARK    4  A    between atoms: N1_4  and  C12_17 
REMARK    5  A    between atoms: C4_6  and  C5_7 
REMARK    6  A    between atoms: C5_7  and  N2_8 
REMARK       I    between atoms: N2_8  and  C6_9 
REMARK    7  A    between atoms: C6_9  and  C7_11 
REMARK    8  A    between atoms: C12_17  and  C13_18 
ROOT
HETATM    1  N1  PCR X   1       2.379   0.839  -3.417  1.00 20.00    -0.064 N 
HETATM    2  H1  PCR X   1       3.317   0.661  -3.854  1.00 20.00     0.280 HD
ENDROOT
BRANCH   1   3
HETATM    3  C3  PCR X   1       1.355   0.295  -4.352  1.00 20.00     0.235 C 
BRANCH   3   4
HETATM    4  C2  PCR X   1       1.436   1.023  -5.682  1.00 20.00     0.023 C 
HETATM    5  C1  PCR X   1       0.475   0.412  -6.691  1.00 20.00     0.007 C 
ENDBRANCH   3   4
ENDBRANCH   1   3
BRANCH   1   6
HETATM    6  C4  PCR X   1       2.391   0.173  -2.079  1.00 20.00     0.255 C 
BRANCH   6   7
HETATM    7  C5  PCR X   1       2.555  -1.323  -2.192  1.00 20.00     0.150 C 
BRANCH   7   8
HETATM    8  N2  PCR X   1       3.688  -1.642  -3.054  1.00 20.00    -0.355 N 
HETATM    9  H13 PCR X   1       3.503  -1.811  -4.001  1.00 20.00     0.162 HD
HETATM   10  C6  PCR X   1       4.971  -1.724  -2.644  1.00 20.00     0.249 C 
HETATM   11  O1  PCR X   1       5.358  -1.325  -1.540  1.00 20.00    -0.268 OA
BRANCH  10  12
HETATM   12  C7  PCR X   1       5.938  -2.240  -3.627  1.00 20.00     0.031 C 
HETATM   13  C8  PCR X   1       7.220  -2.317  -3.308  1.00 20.00     0.147 C 
HETATM   14  O2  PCR X   1       8.242  -2.712  -4.156  1.00 20.00    -0.362 OA
HETATM   15  C9  PCR X   1       7.886  -2.917  -5.544  1.00 20.00     0.174 C 
HETATM   16  C10 PCR X   1       6.513  -3.536  -5.646  1.00 20.00     0.031 C 
HETATM   17  C11 PCR X   1       5.462  -2.673  -4.975  1.00 20.00     0.048 C 
ENDBRANCH  10  12
ENDBRANCH   7   8
ENDBRANCH   6   7
ENDBRANCH   1   6
BRANCH   1  18
HETATM   18  C12 PCR X   1       2.248   2.325  -3.263  1.00 20.00     0.294 C 
BRANCH  18  19
HETATM   19  C13 PCR X   1       3.338   2.918  -2.409  1.00 20.00     0.066 A 
HETATM   20  N3  PCR X   1       4.437   2.162  -2.280  1.00 20.00    -0.263 NA
HETATM   21  C14 PCR X   1       5.433   2.650  -1.534  1.00 20.00     0.117 A 
HETATM   22  C15 PCR X   1       5.377   3.877  -0.902  1.00 20.00     0.020 A 
HETATM   23  C16 PCR X   1       4.236   4.645  -1.040  1.00 20.00     0.010 A 
HETATM   24  C17 PCR X   1       3.196   4.157  -1.807  1.00 20.00    -0.036 A 
HETATM   25  C18 PCR X   1       1.974   5.008  -2.059  1.00 20.00     0.050 C 
ENDBRANCH  18  19
ENDBRANCH   1  18
TORSDOF 8
