REMARK  Name = 
REMARK  11 active torsions:
REMARK  status: ('A' for Active; 'I' for Inactive)
REMARK    1  A    between atoms: C_2  and  C_4
REMARK    2  A    between atoms: C_4  and  N_5
REMARK    3  A    between atoms: N_5  and  C_6
REMARK    4  A    between atoms: N_5  and  C_17
REMARK    5  A    between atoms: C_6  and  C_7
REMARK    6  A    between atoms: C_7  and  N_8
REMARK    7  A    between atoms: N_8  and  C_9
REMARK    8  A    between atoms: N_8  and  C_13
REMARK    9  A    between atoms: C_9  and  C_10
REMARK   10  A    between atoms: C_13  and  C_14
REMARK   11  A    between atoms: C_17  and  C_18
REMARK                            x       y       z     vdW  Elec       q    Type
REMARK                         _______ _______ _______ _____ _____    ______ ____
ROOT
ATOM      1  C   UNL     1       4.719   0.760   0.790  0.00  0.00    +0.000 C 
ENDROOT
BRANCH   1   2
ATOM      2  N   UNL     1       4.344  -0.688   0.604  0.00  0.00    +0.000 NA
BRANCH   2   3
ATOM      3  C   UNL     1       5.058  -1.548   1.621  0.00  0.00    +0.000 C 
BRANCH   3   5
ATOM      4  O   UNL     1       5.707  -0.498   3.691  0.00  0.00    +0.000 OA
ATOM      5  C   UNL     1       4.806  -1.204   3.130  0.00  0.00    +0.000 C 
ATOM      6  O   UNL     1       3.837  -1.797   3.702  0.00  0.00    +0.000 OA
ENDBRANCH   3   5
ENDBRANCH   2   3
BRANCH   2   7
ATOM      7  C   UNL     1       4.770  -1.137  -0.777  0.00  0.00    +0.000 C 
BRANCH   7   8
ATOM      8  C   UNL     1       4.483  -2.635  -1.140  0.00  0.00    +0.000 C 
ATOM      9  O   UNL     1       5.440  -3.452  -0.942  0.00  0.00    +0.000 OA
ATOM     10  O   UNL     1       3.398  -2.877  -1.762  0.00  0.00    +0.000 OA
ENDBRANCH   7   8
ENDBRANCH   2   7
ENDBRANCH   1   2
BRANCH   1  11
ATOM     11  C   UNL     1       4.043   1.794  -0.193  0.00  0.00    +0.000 C 
BRANCH  11  12
ATOM     12  N   UNL     1       4.430   3.242  -0.063  0.00  0.00    +0.000 NA
BRANCH  12  13
ATOM     13  C   UNL     1       5.920   3.392  -0.269  0.00  0.00    +0.000 C 
BRANCH  13  14
ATOM     14  C   UNL     1       6.484   4.855  -0.166  0.00  0.00    +0.000 C 
ATOM     15  O   UNL     1       6.616   5.478  -1.271  0.00  0.00    +0.000 OA
ATOM     16  O   UNL     1       6.922   5.224   0.968  0.00  0.00    +0.000 OA
ENDBRANCH  13  14
ENDBRANCH  12  13
BRANCH  12  17
ATOM     17  C   UNL     1       3.718   4.051  -1.121  0.00  0.00    +0.000 C 
BRANCH  17  18
ATOM     18  C   UNL     1       2.152   4.016  -1.091  0.00  0.00    +0.000 C 
ATOM     19  O   UNL     1       1.565   4.590  -0.120  0.00  0.00    +0.000 OA
ATOM     20  O   UNL     1       1.602   3.545  -2.143  0.00  0.00    +0.000 OA
ENDBRANCH  17  18
ENDBRANCH  12  17
ENDBRANCH  11  12
ENDBRANCH   1  11
TORSDOF 11
